*SPEF "ieee 1481-1999"
*DESIGN "por_dig"
*DATE "08:20:37 Monday April 15, 2024"
*VENDOR "The OpenROAD Project"
*PROGRAM "OpenROAD"
*VERSION "0889970d1790a2617e69f253221b8bd7626e51dc"
*DESIGN_FLOW "NAME_SCOPE LOCAL" "PIN_CAP NONE"
*DIVIDER /
*DELIMITER :
*BUS_DELIMITER []
*T_UNIT 1 NS
*C_UNIT 1 PF
*R_UNIT 1 OHM
*L_UNIT 1 HENRY

*NAME_MAP
*3 force_dis_rc_osc
*4 force_ena_rc_osc
*5 force_pdn
*6 force_pdnb
*7 force_short_oneshot
*8 osc_ck
*9 osc_ena
*10 otrip[0]
*11 otrip[1]
*12 otrip[2]
*13 otrip_decoded[0]
*14 otrip_decoded[1]
*15 otrip_decoded[2]
*16 otrip_decoded[3]
*17 otrip_decoded[4]
*18 otrip_decoded[5]
*19 otrip_decoded[6]
*20 otrip_decoded[7]
*21 por_timed_out
*22 por_unbuf
*23 pwup_filt
*24 startup_timed_out
*25 _000_
*26 _001_
*27 _002_
*28 _003_
*29 _004_
*30 _005_
*31 _006_
*32 _007_
*33 _008_
*34 _009_
*35 _010_
*36 _011_
*37 _012_
*38 _013_
*39 _014_
*40 _015_
*41 _016_
*42 _017_
*43 _018_
*44 _019_
*45 _020_
*46 _021_
*47 _022_
*48 _023_
*49 _024_
*50 _025_
*51 _026_
*52 _027_
*53 _028_
*54 _029_
*55 _030_
*56 _031_
*57 _032_
*58 _033_
*59 _034_
*60 _035_
*61 _036_
*62 _037_
*63 _038_
*64 _039_
*65 _040_
*66 _041_
*67 _042_
*68 _043_
*69 _044_
*70 _045_
*71 _046_
*72 _047_
*73 _048_
*74 _049_
*75 clknet_0_osc_ck
*76 clknet_1_0__leaf_osc_ck
*77 clknet_1_1__leaf_osc_ck
*78 cnt_por\[0\]
*79 cnt_por\[10\]
*80 cnt_por\[1\]
*81 cnt_por\[2\]
*82 cnt_por\[3\]
*83 cnt_por\[4\]
*84 cnt_por\[5\]
*85 cnt_por\[6\]
*86 cnt_por\[7\]
*87 cnt_por\[8\]
*88 cnt_por\[9\]
*89 cnt_rsb
*90 cnt_rsb_stg1
*91 cnt_st\[0\]
*92 cnt_st\[1\]
*93 cnt_st\[2\]
*94 cnt_st\[3\]
*95 cnt_st\[4\]
*96 cnt_st\[5\]
*97 net1
*98 net10
*99 net11
*100 net12
*101 net13
*102 net14
*103 net15
*104 net16
*105 net17
*106 net18
*107 net19
*108 net2
*109 net20
*110 net21
*111 net22
*112 net23
*113 net24
*114 net25
*115 net26
*116 net27
*117 net28
*118 net29
*119 net3
*120 net30
*121 net31
*122 net32
*123 net33
*124 net34
*125 net35
*126 net36
*127 net37
*128 net38
*129 net39
*130 net4
*131 net40
*132 net41
*133 net42
*134 net5
*135 net6
*136 net7
*137 net8
*138 net9
*139 FILLER_0_0_15
*140 FILLER_0_0_27
*141 FILLER_0_0_3
*142 FILLER_0_0_39
*143 FILLER_0_0_57
*144 FILLER_0_0_63
*145 FILLER_0_0_70
*146 FILLER_0_0_77
*147 FILLER_0_0_85
*148 FILLER_0_0_97
*149 FILLER_0_10_80
*150 FILLER_0_10_93
*151 FILLER_0_11_25
*152 FILLER_0_11_3
*153 FILLER_0_11_37
*154 FILLER_0_11_60
*155 FILLER_0_11_89
*156 FILLER_0_11_97
*157 FILLER_0_12_23
*158 FILLER_0_12_56
*159 FILLER_0_12_73
*160 FILLER_0_12_82
*161 FILLER_0_12_85
*162 FILLER_0_12_97
*163 FILLER_0_13_20
*164 FILLER_0_13_28
*165 FILLER_0_13_3
*166 FILLER_0_13_43
*167 FILLER_0_13_54
*168 FILLER_0_13_57
*169 FILLER_0_13_83
*170 FILLER_0_13_95
*171 FILLER_0_14_3
*172 FILLER_0_14_37
*173 FILLER_0_14_53
*174 FILLER_0_14_7
*175 FILLER_0_14_83
*176 FILLER_0_14_85
*177 FILLER_0_14_97
*178 FILLER_0_15_11
*179 FILLER_0_15_3
*180 FILLER_0_15_85
*181 FILLER_0_15_97
*182 FILLER_0_16_15
*183 FILLER_0_16_27
*184 FILLER_0_16_29
*185 FILLER_0_16_3
*186 FILLER_0_16_37
*187 FILLER_0_16_50
*188 FILLER_0_16_65
*189 FILLER_0_16_77
*190 FILLER_0_16_83
*191 FILLER_0_16_85
*192 FILLER_0_16_97
*193 FILLER_0_1_15
*194 FILLER_0_1_27
*195 FILLER_0_1_3
*196 FILLER_0_1_46
*197 FILLER_0_1_64
*198 FILLER_0_1_76
*199 FILLER_0_1_88
*200 FILLER_0_1_96
*201 FILLER_0_2_18
*202 FILLER_0_2_26
*203 FILLER_0_2_29
*204 FILLER_0_2_35
*205 FILLER_0_2_42
*206 FILLER_0_2_55
*207 FILLER_0_2_6
*208 FILLER_0_2_67
*209 FILLER_0_2_79
*210 FILLER_0_2_83
*211 FILLER_0_2_85
*212 FILLER_0_2_97
*213 FILLER_0_3_13
*214 FILLER_0_3_25
*215 FILLER_0_3_31
*216 FILLER_0_3_38
*217 FILLER_0_3_48
*218 FILLER_0_3_53
*219 FILLER_0_3_57
*220 FILLER_0_3_61
*221 FILLER_0_3_69
*222 FILLER_0_3_81
*223 FILLER_0_3_93
*224 FILLER_0_4_23
*225 FILLER_0_4_27
*226 FILLER_0_4_50
*227 FILLER_0_4_64
*228 FILLER_0_4_77
*229 FILLER_0_4_83
*230 FILLER_0_4_85
*231 FILLER_0_4_97
*232 FILLER_0_5_14
*233 FILLER_0_5_6
*234 FILLER_0_5_85
*235 FILLER_0_5_97
*236 FILLER_0_6_27
*237 FILLER_0_6_43
*238 FILLER_0_6_85
*239 FILLER_0_6_93
*240 FILLER_0_7_3
*241 FILLER_0_7_44
*242 FILLER_0_7_53
*243 FILLER_0_7_78
*244 FILLER_0_7_90
*245 FILLER_0_7_98
*246 FILLER_0_8_27
*247 FILLER_0_8_82
*248 FILLER_0_8_90
*249 FILLER_0_8_98
*250 FILLER_0_9_7
*251 FILLER_0_9_92
*252 FILLER_0_9_98
*253 PHY_EDGE_ROW_0_Left_17
*254 PHY_EDGE_ROW_0_Right_0
*255 PHY_EDGE_ROW_10_Left_27
*256 PHY_EDGE_ROW_10_Right_10
*257 PHY_EDGE_ROW_11_Left_28
*258 PHY_EDGE_ROW_11_Right_11
*259 PHY_EDGE_ROW_12_Left_29
*260 PHY_EDGE_ROW_12_Right_12
*261 PHY_EDGE_ROW_13_Left_30
*262 PHY_EDGE_ROW_13_Right_13
*263 PHY_EDGE_ROW_14_Left_31
*264 PHY_EDGE_ROW_14_Right_14
*265 PHY_EDGE_ROW_15_Left_32
*266 PHY_EDGE_ROW_15_Right_15
*267 PHY_EDGE_ROW_16_Left_33
*268 PHY_EDGE_ROW_16_Right_16
*269 PHY_EDGE_ROW_1_Left_18
*270 PHY_EDGE_ROW_1_Right_1
*271 PHY_EDGE_ROW_2_Left_19
*272 PHY_EDGE_ROW_2_Right_2
*273 PHY_EDGE_ROW_3_Left_20
*274 PHY_EDGE_ROW_3_Right_3
*275 PHY_EDGE_ROW_4_Left_21
*276 PHY_EDGE_ROW_4_Right_4
*277 PHY_EDGE_ROW_5_Left_22
*278 PHY_EDGE_ROW_5_Right_5
*279 PHY_EDGE_ROW_6_Left_23
*280 PHY_EDGE_ROW_6_Right_6
*281 PHY_EDGE_ROW_7_Left_24
*282 PHY_EDGE_ROW_7_Right_7
*283 PHY_EDGE_ROW_8_Left_25
*284 PHY_EDGE_ROW_8_Right_8
*285 PHY_EDGE_ROW_9_Left_26
*286 PHY_EDGE_ROW_9_Right_9
*287 TAP_TAPCELL_ROW_0_34
*288 TAP_TAPCELL_ROW_0_35
*289 TAP_TAPCELL_ROW_0_36
*290 TAP_TAPCELL_ROW_10_50
*291 TAP_TAPCELL_ROW_10_51
*292 TAP_TAPCELL_ROW_11_52
*293 TAP_TAPCELL_ROW_12_53
*294 TAP_TAPCELL_ROW_12_54
*295 TAP_TAPCELL_ROW_13_55
*296 TAP_TAPCELL_ROW_14_56
*297 TAP_TAPCELL_ROW_14_57
*298 TAP_TAPCELL_ROW_15_58
*299 TAP_TAPCELL_ROW_16_59
*300 TAP_TAPCELL_ROW_16_60
*301 TAP_TAPCELL_ROW_16_61
*302 TAP_TAPCELL_ROW_1_37
*303 TAP_TAPCELL_ROW_2_38
*304 TAP_TAPCELL_ROW_2_39
*305 TAP_TAPCELL_ROW_3_40
*306 TAP_TAPCELL_ROW_4_41
*307 TAP_TAPCELL_ROW_4_42
*308 TAP_TAPCELL_ROW_5_43
*309 TAP_TAPCELL_ROW_6_44
*310 TAP_TAPCELL_ROW_6_45
*311 TAP_TAPCELL_ROW_7_46
*312 TAP_TAPCELL_ROW_8_47
*313 TAP_TAPCELL_ROW_8_48
*314 TAP_TAPCELL_ROW_9_49
*315 _050_
*316 _051_
*317 _052_
*318 _053_
*319 _054_
*320 _055_
*321 _056_
*322 _057_
*323 _058_
*324 _059_
*325 _060_
*326 _061_
*327 _062_
*328 _063_
*329 _064_
*330 _065_
*331 _066_
*332 _067_
*333 _068_
*334 _069_
*335 _070_
*336 _071_
*337 _072_
*338 _073_
*339 _074_
*340 _075_
*341 _076_
*342 _077_
*343 _078_
*344 _079_
*345 _080_
*346 _081_
*347 _082_
*348 _083_
*349 _084_
*350 _085_
*351 _086_
*352 _087_
*353 _088_
*354 _089_
*355 _090_
*356 _091_
*357 _092_
*358 _093_
*359 _094_
*360 _095_
*361 _096_
*362 _097_
*363 _098_
*364 _099_
*365 _100_
*366 _101_
*367 _102_
*368 _103_
*369 _104_
*370 _105_
*371 _106_
*372 _107_
*373 _108_
*374 _109_
*375 _110_
*376 _111_
*377 _112_
*378 _113_
*379 _114_
*380 _115_
*381 _116_
*382 _117_
*383 _118_
*384 _119_
*385 _120_
*386 _121_
*387 _122_
*388 _123_
*389 _124_
*390 _125_
*391 _126_
*392 _127_
*393 _128_
*394 _129_
*395 _130_
*396 _130__27
*397 _131_
*398 clkbuf_0_osc_ck
*399 clkbuf_1_0__f_osc_ck
*400 clkbuf_1_1__f_osc_ck
*401 fanout22
*402 fanout23
*403 fanout24
*404 fanout25
*405 fanout26
*406 hold1
*407 hold10
*408 hold11
*409 hold12
*410 hold13
*411 hold14
*412 hold15
*413 hold2
*414 hold3
*415 hold4
*416 hold5
*417 hold6
*418 hold7
*419 hold8
*420 hold9
*421 input1
*422 input2
*423 input3
*424 input4
*425 input5
*426 input6
*427 input7
*428 input8
*429 output10
*430 output11
*431 output12
*432 output13
*433 output14
*434 output15
*435 output16
*436 output17
*437 output18
*438 output19
*439 output20
*440 output21
*441 output9

*PORTS
force_dis_rc_osc I
force_ena_rc_osc I
force_pdn I
force_pdnb O
force_short_oneshot I
osc_ck I
osc_ena O
otrip[0] I
otrip[1] I
otrip[2] I
otrip_decoded[0] O
otrip_decoded[1] O
otrip_decoded[2] O
otrip_decoded[3] O
otrip_decoded[4] O
otrip_decoded[5] O
otrip_decoded[6] O
otrip_decoded[7] O
por_timed_out O
por_unbuf O
pwup_filt I
startup_timed_out O

*D_NET *3 0.000567409
*CONN
*P force_dis_rc_osc I
*I *421:A I *D sky130_fd_sc_hd__clkbuf_1
*CAP
1 force_dis_rc_osc 0.000212445
2 *421:A 0.000212445
3 *421:A force_pdnb 0
4 *421:A osc_ena 7.63836e-05
5 *421:A *334:A2 0
6 *421:A *428:A 6.61341e-05
7 *421:A *137:15 0
*RES
1 force_dis_rc_osc *421:A 5.86677 
*END

*D_NET *4 0.000583435
*CONN
*P force_ena_rc_osc I
*I *422:A I *D sky130_fd_sc_hd__clkbuf_1
*CAP
1 force_ena_rc_osc 0.000176117
2 *422:A 0.000176117
3 *422:A por_timed_out 8.53361e-05
4 *422:A startup_timed_out 9.47178e-05
5 *422:A *334:B1 3.08148e-05
6 *422:A *392:D 2.03321e-05
*RES
1 force_ena_rc_osc *422:A 5.86677 
*END

*D_NET *5 0.000570866
*CONN
*P force_pdn I
*I *423:A I *D sky130_fd_sc_hd__clkbuf_1
*CAP
1 force_pdn 0.000259818
2 *423:A 0.000259818
3 *423:A force_pdnb 5.12305e-05
*RES
1 force_pdn *423:A 6.76797 
*END

*D_NET *6 0.000532375
*CONN
*P force_pdnb O
*I *441:X O *D sky130_fd_sc_hd__buf_2
*CAP
1 force_pdnb 0.000212407
2 *441:X 0.000212407
3 force_pdnb *315:A 0
4 force_pdnb *428:A 5.63302e-05
5 *421:A force_pdnb 0
6 *423:A force_pdnb 5.12305e-05
*RES
1 *441:X force_pdnb 5.41503 
*END

*D_NET *7 0.00052213
*CONN
*P force_short_oneshot I
*I *424:A I *D sky130_fd_sc_hd__buf_1
*CAP
1 force_short_oneshot 0.000261065
2 *424:A 0.000261065
*RES
1 force_short_oneshot *424:A 6.7137 
*END

*D_NET *8 0.00420053
*CONN
*P osc_ck I
*I *398:A I *D sky130_fd_sc_hd__clkbuf_16
*CAP
1 osc_ck 0.00174922
2 *398:A 0.00174922
3 *398:A *320:C_N 3.4353e-05
4 *398:A *338:A1 6.78738e-05
5 *398:A *338:B1_N 6.59933e-05
6 *398:A *359:B1 3.79973e-05
7 *398:A *362:A1 0.00010816
8 *398:A *363:A1 0
9 *398:A *368:B2 0.000170588
10 *398:A *370:A4 2.26207e-05
11 *398:A *388:D 0.000141592
12 *398:A *86:27 5.29053e-05
*RES
1 osc_ck *398:A 15.1559 
*END

*D_NET *9 0.00201476
*CONN
*P osc_ena O
*I *429:X O *D sky130_fd_sc_hd__buf_2
*CAP
1 osc_ena 0.000815556
2 *429:X 0.000815556
3 osc_ena por_timed_out 0.000272233
4 osc_ena *413:A 3.50343e-05
5 osc_ena *112:40 0
6 *421:A osc_ena 7.63836e-05
*RES
1 *429:X osc_ena 7.14863 
*END

*D_NET *10 0.000766499
*CONN
*P otrip[0] I
*I *425:A I *D sky130_fd_sc_hd__dlymetal6s2s_1
*CAP
1 otrip[0] 0.000383249
2 *425:A 0.000383249
3 *425:A otrip_decoded[6] 0
*RES
1 otrip[0] *425:A 10.455 
*END

*D_NET *11 0.000761861
*CONN
*P otrip[1] I
*I *426:A I *D sky130_fd_sc_hd__dlymetal6s2s_1
*CAP
1 otrip[1] 0.000380931
2 *426:A 0.000380931
3 *426:A *427:A 0
*RES
1 otrip[1] *426:A 10.35 
*END

*D_NET *12 0.00101188
*CONN
*P otrip[2] I
*I *427:A I *D sky130_fd_sc_hd__dlymetal6s2s_1
*CAP
1 otrip[2] 0.00050594
2 *427:A 0.00050594
3 *427:A otrip_decoded[1] 0
4 *426:A *427:A 0
*RES
1 otrip[2] *427:A 12.075 
*END

*D_NET *13 0.000953883
*CONN
*P otrip_decoded[0] O
*I *430:X O *D sky130_fd_sc_hd__buf_2
*CAP
1 otrip_decoded[0] 0.000414491
2 *430:X 0.000414491
3 otrip_decoded[0] otrip_decoded[3] 0
4 otrip_decoded[0] otrip_decoded[7] 0
5 otrip_decoded[0] *436:A 0.0001249
*RES
1 *430:X otrip_decoded[0] 10.53 
*END

*D_NET *14 0.00157359
*CONN
*P otrip_decoded[1] O
*I *431:X O *D sky130_fd_sc_hd__buf_2
*CAP
1 otrip_decoded[1] 0.000670293
2 *431:X 0.000670293
3 otrip_decoded[1] otrip_decoded[4] 0
4 otrip_decoded[1] *330:A 0
5 otrip_decoded[1] *431:A 7.06865e-05
6 otrip_decoded[1] *135:12 0
7 otrip_decoded[1] *136:12 0.000162318
8 *427:A otrip_decoded[1] 0
*RES
1 *431:X otrip_decoded[1] 14.61 
*END

*D_NET *15 0.000836855
*CONN
*P otrip_decoded[2] O
*I *432:X O *D sky130_fd_sc_hd__buf_2
*CAP
1 otrip_decoded[2] 0.000418428
2 *432:X 0.000418428
3 otrip_decoded[2] otrip_decoded[4] 0
4 otrip_decoded[2] otrip_decoded[7] 0
*RES
1 *432:X otrip_decoded[2] 10.74 
*END

*D_NET *16 0.000949645
*CONN
*P otrip_decoded[3] O
*I *433:X O *D sky130_fd_sc_hd__buf_2
*CAP
1 otrip_decoded[3] 0.000412372
2 *433:X 0.000412372
3 otrip_decoded[3] otrip_decoded[5] 0
4 otrip_decoded[3] *436:A 0.0001249
5 otrip_decoded[0] otrip_decoded[3] 0
*RES
1 *433:X otrip_decoded[3] 10.53 
*END

*D_NET *17 0.00145294
*CONN
*P otrip_decoded[4] O
*I *434:X O *D sky130_fd_sc_hd__buf_2
*CAP
1 otrip_decoded[4] 0.000653664
2 *434:X 0.000653664
3 otrip_decoded[4] *330:A 2.61115e-05
4 otrip_decoded[4] *432:A 8.08439e-05
5 otrip_decoded[4] *434:A 3.86607e-05
6 otrip_decoded[4] *437:A 0
7 otrip_decoded[4] *136:12 0
8 otrip_decoded[1] otrip_decoded[4] 0
9 otrip_decoded[2] otrip_decoded[4] 0
*RES
1 *434:X otrip_decoded[4] 14.925 
*END

*D_NET *18 0.000949645
*CONN
*P otrip_decoded[5] O
*I *435:X O *D sky130_fd_sc_hd__buf_2
*CAP
1 otrip_decoded[5] 0.000412372
2 *435:X 0.000412372
3 otrip_decoded[5] otrip_decoded[6] 0
4 otrip_decoded[5] *436:A 0.0001249
5 otrip_decoded[3] otrip_decoded[5] 0
*RES
1 *435:X otrip_decoded[5] 10.53 
*END

*D_NET *19 0.000904014
*CONN
*P otrip_decoded[6] O
*I *436:X O *D sky130_fd_sc_hd__buf_2
*CAP
1 otrip_decoded[6] 0.000427861
2 *436:X 0.000427861
3 otrip_decoded[6] *436:A 4.82919e-05
4 otrip_decoded[5] otrip_decoded[6] 0
5 *425:A otrip_decoded[6] 0
*RES
1 *436:X otrip_decoded[6] 10.53 
*END

*D_NET *20 0.00103342
*CONN
*P otrip_decoded[7] O
*I *437:X O *D sky130_fd_sc_hd__buf_2
*CAP
1 otrip_decoded[7] 0.000435108
2 *437:X 0.000435108
3 otrip_decoded[7] *136:35 0.000163199
4 otrip_decoded[0] otrip_decoded[7] 0
5 otrip_decoded[2] otrip_decoded[7] 0
*RES
1 *437:X otrip_decoded[7] 10.875 
*END

*D_NET *21 0.00175339
*CONN
*P por_timed_out O
*I *438:X O *D sky130_fd_sc_hd__buf_2
*CAP
1 por_timed_out 0.000673053
2 *438:X 0.000673053
3 por_timed_out *391:D 0
4 por_timed_out *112:66 3.11103e-05
5 por_timed_out *113:47 1.86021e-05
6 osc_ena por_timed_out 0.000272233
7 *422:A por_timed_out 8.53361e-05
*RES
1 *438:X por_timed_out 6.83537 
*END

*D_NET *22 0.000888545
*CONN
*P por_unbuf O
*I *439:X O *D sky130_fd_sc_hd__buf_2
*CAP
1 por_unbuf 0.000428991
2 *439:X 0.000428991
3 por_unbuf *363:B1 2.20732e-05
4 por_unbuf *368:A2 5.83121e-06
5 por_unbuf *407:A 2.65814e-06
*RES
1 *439:X por_unbuf 10.695 
*END

*D_NET *23 0.00120056
*CONN
*P pwup_filt I
*I *428:A I *D sky130_fd_sc_hd__buf_1
*CAP
1 pwup_filt 0.00043163
2 *428:A 0.00043163
3 *428:A *316:A 0.00012657
4 *428:A *334:A2 8.8266e-05
5 *428:A *378:CLK 0
6 force_pdnb *428:A 5.63302e-05
7 *421:A *428:A 6.61341e-05
*RES
1 pwup_filt *428:A 10.462 
*END

*D_NET *24 0.000900179
*CONN
*P startup_timed_out O
*I *440:X O *D sky130_fd_sc_hd__buf_2
*CAP
1 startup_timed_out 0.000402731
2 *440:X 0.000402731
3 startup_timed_out *392:D 0
4 *422:A startup_timed_out 9.47178e-05
*RES
1 *440:X startup_timed_out 8.70697 
*END

*D_NET *25 0.00080467
*CONN
*I *378:D I *D sky130_fd_sc_hd__dfrtp_1
*I *337:X O *D sky130_fd_sc_hd__or3b_1
*CAP
1 *378:D 0.000330105
2 *337:X 0.000330105
3 *378:D *337:B 0
4 *378:D *380:CLK 7.89269e-05
5 *378:D *413:A 6.55328e-05
*RES
1 *337:X *378:D 12.24 
*END

*D_NET *26 0.00101978
*CONN
*I *420:A I *D sky130_fd_sc_hd__dlygate4sd3_1
*I *339:Y O *D sky130_fd_sc_hd__a211oi_1
*CAP
1 *420:A 7.86614e-05
2 *339:Y 7.86614e-05
3 *420:A *339:A2 0.00027559
4 *420:A *339:C1 0.000510873
5 *420:A *406:A 7.5992e-05
*RES
1 *339:Y *420:A 7.445 
*END

*D_NET *27 0.000871234
*CONN
*I *380:D I *D sky130_fd_sc_hd__dfrtp_1
*I *342:Y O *D sky130_fd_sc_hd__o21bai_1
*CAP
1 *380:D 0.00026204
2 *342:Y 0.00026204
3 *380:D *337:A 4.57249e-05
4 *380:D *337:C_N 1.83756e-05
5 *380:D *342:A2 1.16578e-05
6 *380:D *406:A 0.000120186
7 *380:D *91:23 0.00011852
8 *380:D *115:26 3.269e-05
*RES
1 *342:Y *380:D 11.445 
*END

*D_NET *28 0.000450059
*CONN
*I *381:D I *D sky130_fd_sc_hd__dfrtp_1
*I *344:X O *D sky130_fd_sc_hd__o311a_1
*CAP
1 *381:D 0.00013109
2 *344:X 0.00013109
3 *381:D *344:A1 5.05521e-05
4 *381:D *64:20 9.30787e-05
5 *381:D *115:16 4.42474e-05
*RES
1 *344:X *381:D 9.465 
*END

*D_NET *29 0.000478952
*CONN
*I *382:D I *D sky130_fd_sc_hd__dfrtp_1
*I *347:Y O *D sky130_fd_sc_hd__nor2_1
*CAP
1 *382:D 0.000147571
2 *347:Y 0.000147571
3 *382:D *346:B 7.23533e-05
4 *382:D *347:B 4.9253e-06
5 *382:D *381:CLK 2.75145e-05
6 *382:D *382:CLK 8.3303e-06
7 *382:D *77:10 7.06865e-05
*RES
1 *347:Y *382:D 9.36 
*END

*D_NET *30 0.00112349
*CONN
*I *383:D I *D sky130_fd_sc_hd__dfrtp_1
*I *348:X O *D sky130_fd_sc_hd__xor2_1
*CAP
1 *383:D 0.000561744
2 *348:X 0.000561744
3 *383:D *402:A 0
4 *383:D *112:10 0
*RES
1 *348:X *383:D 15.975 
*END

*D_NET *31 0.000295392
*CONN
*I *384:D I *D sky130_fd_sc_hd__dfrtp_1
*I *350:X O *D sky130_fd_sc_hd__mux2_1
*CAP
1 *384:D 7.4953e-05
2 *350:X 7.4953e-05
3 *384:D *388:RESET_B 9.3062e-06
4 *384:D *61:37 4.99619e-05
5 *384:D *68:48 3.23391e-05
6 *384:D *68:56 4.43871e-06
7 *384:D *77:55 4.94404e-05
*RES
1 *350:X *384:D 8.775 
*END

*D_NET *32 0.000725171
*CONN
*I *385:D I *D sky130_fd_sc_hd__dfrtp_1
*I *353:X O *D sky130_fd_sc_hd__o2bb2a_1
*CAP
1 *385:D 0.000281149
2 *353:X 0.000281149
3 *385:D *353:A1_N 5.11685e-05
4 *385:D *353:B1 9.05959e-05
5 *385:D *80:12 2.11084e-05
*RES
1 *353:X *385:D 7.565 
*END

*D_NET *33 0.000921299
*CONN
*I *386:D I *D sky130_fd_sc_hd__dfrtp_1
*I *356:X O *D sky130_fd_sc_hd__a32o_1
*CAP
1 *386:D 0.000310771
2 *356:X 0.000310771
3 *386:D *356:A2 3.04982e-05
4 *386:D *386:RESET_B 0.000167716
5 *386:D *78:10 7.4027e-05
6 *386:D *81:8 0
7 *386:D *113:101 2.75145e-05
*RES
1 *356:X *386:D 13.485 
*END

*D_NET *34 0.000402161
*CONN
*I *387:D I *D sky130_fd_sc_hd__dfrtp_1
*I *360:X O *D sky130_fd_sc_hd__o21ba_1
*CAP
1 *387:D 0.000100677
2 *360:X 0.000100677
3 *387:D *351:B1 0
4 *387:D *388:RESET_B 1.71013e-05
5 *387:D *400:A 8.8266e-05
6 *387:D *112:129 9.54399e-05
*RES
1 *360:X *387:D 9.12 
*END

*D_NET *35 0.000743758
*CONN
*I *388:D I *D sky130_fd_sc_hd__dfrtp_1
*I *362:X O *D sky130_fd_sc_hd__o32a_1
*CAP
1 *388:D 0.000135692
2 *362:X 0.000135692
3 *388:D *324:B 4.66108e-05
4 *388:D *339:C1 0
5 *388:D *86:14 0.000140905
6 *388:D *86:27 0.000143266
7 *398:A *388:D 0.000141592
*RES
1 *362:X *388:D 10.815 
*END

*D_NET *36 0.000532525
*CONN
*I *389:D I *D sky130_fd_sc_hd__dfrtp_1
*I *366:X O *D sky130_fd_sc_hd__o2bb2a_1
*CAP
1 *389:D 0.000119319
2 *366:X 0.000119319
3 *389:D *368:B1 0.000114196
4 *389:D *368:B2 0.00011852
5 *389:D *389:RESET_B 6.11706e-05
*RES
1 *366:X *389:D 10.065 
*END

*D_NET *37 0.00231787
*CONN
*I *390:D I *D sky130_fd_sc_hd__dfrtp_1
*I *368:X O *D sky130_fd_sc_hd__a22o_1
*CAP
1 *390:D 0.000743494
2 *368:X 0.000743494
3 *390:D *368:A1 0.000454714
4 *390:D *368:A2 3.38652e-05
5 *390:D *389:CLK 0.000307748
6 *390:D *389:RESET_B 0
7 *390:D *390:CLK 3.45588e-05
8 *390:D *113:72 0
*RES
1 *368:X *390:D 19.665 
*END

*D_NET *38 0.0012655
*CONN
*I *391:D I *D sky130_fd_sc_hd__dfrtp_1
*I *372:X O *D sky130_fd_sc_hd__o21ba_1
*CAP
1 *391:D 0.000311287
2 *372:X 0.000311287
3 *391:D *391:CLK 4.00541e-06
4 *391:D *413:A 3.45588e-05
5 *391:D *76:10 5.92191e-05
6 *391:D *76:12 9.60963e-05
7 *391:D *76:14 5.53249e-06
8 *391:D *112:81 0.000157602
9 *391:D *112:94 7.4027e-05
10 *391:D *113:47 0.000211886
11 por_timed_out *391:D 0
*RES
1 *372:X *391:D 14.325 
*END

*D_NET *39 0.000617693
*CONN
*I *392:D I *D sky130_fd_sc_hd__dfrtp_1
*I *373:X O *D sky130_fd_sc_hd__xor2_1
*CAP
1 *392:D 0.000166574
2 *373:X 0.000166574
3 *392:D *334:B1 0.000253949
4 *392:D *373:A 0
5 *392:D *392:CLK 1.0263e-05
6 *392:D *87:10 0
7 *392:D *87:21 0
8 startup_timed_out *392:D 0
9 *422:A *392:D 2.03321e-05
*RES
1 *373:X *392:D 11.0288 
*END

*D_NET *40 0.000190999
*CONN
*I *393:D I *D sky130_fd_sc_hd__dfrtp_1
*I *376:X O *D sky130_fd_sc_hd__and2b_1
*CAP
1 *393:D 4.01285e-05
2 *376:X 4.01285e-05
3 *393:D *393:CLK 1.00127e-05
4 *393:D *394:RESET_B 2.67022e-05
5 *393:D *76:110 7.4027e-05
*RES
1 *376:X *393:D 8.22 
*END

*D_NET *41 0.000483892
*CONN
*I *394:D I *D sky130_fd_sc_hd__dfrtp_1
*I *377:X O *D sky130_fd_sc_hd__xor2_1
*CAP
1 *394:D 0.000203898
2 *377:X 0.000203898
3 *394:D *394:CLK 7.60965e-05
4 *394:D *51:10 0
*RES
1 *377:X *394:D 10.575 
*END

*D_NET *42 0.00235902
*CONN
*I *360:B1_N I *D sky130_fd_sc_hd__o21ba_1
*I *362:B1 I *D sky130_fd_sc_hd__o32a_1
*I *359:X O *D sky130_fd_sc_hd__o211a_1
*CAP
1 *360:B1_N 0.000242383
2 *362:B1 0.000135357
3 *359:X 3.90098e-05
4 *42:8 0.00041675
5 *360:B1_N *360:A1 0
6 *360:B1_N *388:RESET_B 0.000193507
7 *360:B1_N *400:A 7.60398e-05
8 *360:B1_N *405:A 0.000124895
9 *360:B1_N *111:70 2.10433e-05
10 *360:B1_N *112:28 0.000270415
11 *362:B1 *338:A1 7.81221e-05
12 *362:B1 *359:B1 0.000187434
13 *362:B1 *362:A2 9.34516e-05
14 *362:B1 *362:A3 2.05056e-05
15 *362:B1 *362:B2 4.82919e-05
16 *362:B1 *111:70 0.000183366
17 *42:8 *359:B1 0.000153139
18 *42:8 *111:70 7.53115e-05
*RES
1 *359:X *42:8 5.3625 
2 *42:8 *362:B1 8.4525 
3 *42:8 *360:B1_N 9.5925 
*END

*D_NET *43 0.0012475
*CONN
*I *362:A3 I *D sky130_fd_sc_hd__o32a_1
*I *361:Y O *D sky130_fd_sc_hd__nand2_1
*CAP
1 *362:A3 0.00015128
2 *361:Y 0.00015128
3 *362:A3 *324:B 0.000522625
4 *362:A3 *359:A2 0.000192125
5 *362:A3 *359:B1 3.13354e-05
6 *362:A3 *362:A2 2.88442e-05
7 *362:A3 *362:B2 0.000119762
8 *362:A3 *83:29 2.97473e-05
9 *362:B1 *362:A3 2.05056e-05
*RES
1 *361:Y *362:A3 8.495 
*END

*D_NET *44 0.000961141
*CONN
*I *365:A I *D sky130_fd_sc_hd__or2_1
*I *363:Y O *D sky130_fd_sc_hd__a21oi_1
*CAP
1 *365:A 0.00014866
2 *363:Y 0.00014866
3 *365:A *363:A2 0.000356583
4 *365:A *366:B1 4.82919e-05
5 *365:A *368:A2 8.42239e-05
6 *365:A *61:57 0.00012476
7 *365:A *68:18 4.99619e-05
*RES
1 *363:Y *365:A 12.345 
*END

*D_NET *45 0.00320084
*CONN
*I *369:D I *D sky130_fd_sc_hd__and4_1
*I *367:B I *D sky130_fd_sc_hd__xor2_1
*I *365:B I *D sky130_fd_sc_hd__or2_1
*I *364:X O *D sky130_fd_sc_hd__and2_1
*CAP
1 *369:D 0.000120681
2 *367:B 0
3 *365:B 0.000123021
4 *364:X 0
5 *45:33 0.000691004
6 *45:6 0.000693344
7 *365:B *323:A 0.000134516
8 *365:B *61:29 9.02924e-05
9 *365:B *61:57 9.30787e-05
10 *365:B *77:55 0
11 *369:D *369:A 5.33172e-05
12 *369:D *369:B 4.82863e-05
13 *369:D *369:C 2.30292e-05
14 *369:D *372:A2 2.65814e-06
15 *369:D *377:A 0.000241483
16 *45:33 *320:C_N 4.56677e-05
17 *45:33 *338:A2 6.36062e-05
18 *45:33 *338:B1_N 4.77153e-05
19 *45:33 *339:C1 0.000173236
20 *45:33 *368:B2 0.000123881
21 *45:33 *369:A 4.82863e-05
22 *45:33 *369:C 0
23 *45:33 *370:A4 0.000168361
24 *45:33 *61:29 1.60991e-05
25 *45:33 *74:42 0.000185842
26 *45:33 *77:55 1.34363e-05
*RES
1 *364:X *45:6 3.6 
2 *45:6 *365:B 6.195 
3 *45:6 *45:33 9.4874 
4 *45:33 *367:B 1.6 
5 *45:33 *369:D 5.08 
*END

*D_NET *46 0.000482499
*CONN
*I *366:A2_N I *D sky130_fd_sc_hd__o2bb2a_1
*I *365:X O *D sky130_fd_sc_hd__or2_1
*CAP
1 *366:A2_N 0.000171924
2 *365:X 0.000171924
3 *366:A2_N *68:18 0.000138651
*RES
1 *365:X *366:A2_N 5.375 
*END

*D_NET *47 0.00128141
*CONN
*I *368:B2 I *D sky130_fd_sc_hd__a22o_1
*I *367:X O *D sky130_fd_sc_hd__xor2_1
*CAP
1 *368:B2 0.000302425
2 *367:X 0.000302425
3 *368:B2 *320:C_N 8.57492e-05
4 *368:B2 *363:A2 0
5 *368:B2 *368:A1 0
6 *368:B2 *368:B1 0.000177824
7 *368:B2 *85:16 0
8 *389:D *368:B2 0.00011852
9 *398:A *368:B2 0.000170588
10 *45:33 *368:B2 0.000123881
*RES
1 *367:X *368:B2 14.565 
*END

*D_NET *48 0.00143817
*CONN
*I *372:A2 I *D sky130_fd_sc_hd__o21ba_1
*I *369:X O *D sky130_fd_sc_hd__and4_1
*CAP
1 *372:A2 0.000243701
2 *369:X 0.000243701
3 *372:A2 *369:C 0.000100301
4 *372:A2 *374:C 0.000136321
5 *372:A2 *374:D 8.65905e-05
6 *372:A2 *377:A 7.55531e-06
7 *372:A2 *394:RESET_B 0.000160658
8 *372:A2 *50:24 8.49205e-05
9 *372:A2 *111:8 3.4222e-05
10 *372:A2 *113:47 0.000337538
11 *369:D *372:A2 2.65814e-06
*RES
1 *369:X *372:A2 14.505 
*END

*D_NET *49 0.00424354
*CONN
*I *375:A4 I *D sky130_fd_sc_hd__a41o_1
*I *371:C I *D sky130_fd_sc_hd__and3_1
*I *374:D I *D sky130_fd_sc_hd__and4_1
*I *370:X O *D sky130_fd_sc_hd__a41o_1
*CAP
1 *375:A4 5.71973e-05
2 *371:C 0.000465389
3 *374:D 0.000273647
4 *370:X 5.23698e-05
5 *49:10 0.000886517
6 *49:8 0.000257047
7 *371:C *379:CLK 7.00889e-06
8 *371:C *379:D 0.000175041
9 *371:C *438:A 0.000249921
10 *371:C *86:14 6.24296e-05
11 *371:C *111:38 0.000279825
12 *371:C *112:34 0.000104414
13 *371:C *113:33 4.04613e-05
14 *371:C *113:37 3.07739e-05
15 *374:D *372:A1 2.04101e-05
16 *374:D *372:B1_N 5.4155e-06
17 *374:D *373:B 0.000192285
18 *374:D *374:C 0.000336956
19 *374:D *438:A 8.53113e-06
20 *374:D *50:24 4.61748e-05
21 *375:A4 *324:C_N 0.00011577
22 *375:A4 *324:D_N 3.26889e-05
23 *375:A4 *369:B 8.57024e-05
24 *375:A4 *111:34 6.6564e-05
25 *49:8 *369:B 3.09451e-05
26 *49:8 *401:A 0
27 *49:8 *111:34 3.09164e-05
28 *49:10 *369:B 2.97004e-06
29 *49:10 *374:C 0
30 *49:10 *111:34 0.000219019
31 *49:10 *111:38 2.05641e-05
32 *372:A2 *374:D 8.65905e-05
*RES
1 *370:X *49:8 4.725 
2 *49:8 *49:10 2.7825 
3 *49:10 *374:D 10.5225 
4 *49:10 *371:C 17.5225 
5 *49:8 *375:A4 5.79 
*END

*D_NET *50 0.00305671
*CONN
*I *372:B1_N I *D sky130_fd_sc_hd__o21ba_1
*I *373:B I *D sky130_fd_sc_hd__xor2_1
*I *371:X O *D sky130_fd_sc_hd__and3_1
*CAP
1 *372:B1_N 1.88809e-05
2 *373:B 0.000231445
3 *371:X 0.00074478
4 *50:24 0.000995106
5 *372:B1_N *372:A1 0
6 *50:24 *325:A 4.82919e-05
7 *50:24 *372:A1 8.37159e-05
8 *50:24 *379:D 4.76581e-05
9 *50:24 *388:CLK 3.64998e-06
10 *50:24 *399:A 0.000107868
11 *50:24 *86:14 0.000348788
12 *50:24 *111:38 0
13 *50:24 *111:51 4.94457e-05
14 *50:24 *112:34 4.82863e-05
15 *372:A2 *50:24 8.49205e-05
16 *374:D *372:B1_N 5.4155e-06
17 *374:D *373:B 0.000192285
18 *374:D *50:24 4.61748e-05
*RES
1 *371:X *50:24 23.415 
2 *50:24 *373:B 5.5 
3 *50:24 *372:B1_N 1.96 
*END

*D_NET *51 0.000926233
*CONN
*I *376:A_N I *D sky130_fd_sc_hd__and2b_1
*I *377:B I *D sky130_fd_sc_hd__xor2_1
*I *374:X O *D sky130_fd_sc_hd__and4_1
*CAP
1 *376:A_N 1.77632e-05
2 *377:B 2.22788e-05
3 *374:X 0.000305163
4 *51:10 0.000345205
5 *376:A_N *377:A 4.82919e-05
6 *377:B *377:A 4.82863e-05
7 *51:10 *376:B 0
8 *51:10 *76:99 0
9 *51:10 *76:110 0
10 *51:10 *87:21 0.000139245
11 *51:10 *88:14 0
12 *394:D *51:10 0
*RES
1 *374:X *51:10 11.06 
2 *51:10 *377:B 2.05 
3 *51:10 *376:A_N 2.05 
*END

*D_NET *52 0.000531567
*CONN
*I *376:B I *D sky130_fd_sc_hd__and2b_1
*I *375:X O *D sky130_fd_sc_hd__a41o_1
*CAP
1 *376:B 0.000128446
2 *375:X 0.000128446
3 *376:B *76:99 0.000140912
4 *376:B *76:110 0.000133763
5 *51:10 *376:B 0
*RES
1 *375:X *376:B 10.365 
*END

*D_NET *53 0.000695466
*CONN
*I *334:A2 I *D sky130_fd_sc_hd__a31o_1
*I *316:Y O *D sky130_fd_sc_hd__inv_2
*CAP
1 *334:A2 0.000256555
2 *316:Y 0.000256555
3 *334:A2 *334:A1 0
4 *334:A2 *397:D 9.40887e-05
5 *334:A2 *137:15 0
6 *421:A *334:A2 0
7 *428:A *334:A2 8.8266e-05
*RES
1 *316:Y *334:A2 11.415 
*END

*D_NET *54 0.000602728
*CONN
*I *318:B I *D sky130_fd_sc_hd__and3b_1
*I *317:X O *D sky130_fd_sc_hd__and4bb_1
*CAP
1 *318:B 0.000162816
2 *317:X 0.000162816
3 *318:B *345:A1 8.53113e-06
4 *318:B *351:B1 4.9968e-05
5 *318:B *357:C 0.000118935
6 *318:B *359:A1 1.22762e-05
7 *318:B *92:35 1.73877e-05
8 *318:B *115:10 6.99988e-05
*RES
1 *317:X *318:B 10.14 
*END

*D_NET *55 0.00183116
*CONN
*I *344:C1 I *D sky130_fd_sc_hd__o311a_1
*I *319:Y O *D sky130_fd_sc_hd__inv_2
*CAP
1 *344:C1 0.000434061
2 *319:Y 0.000434061
3 *344:C1 *344:B1 5.4155e-06
4 *344:C1 *346:B 7.04279e-05
5 *344:C1 *348:B 2.25161e-05
6 *344:C1 *96:8 1.83756e-05
7 *344:C1 *114:36 4.43871e-06
8 *344:C1 *114:50 4.50017e-05
9 *344:C1 *114:63 0.000274536
10 *344:C1 *130:16 0.000522331
*RES
1 *319:Y *344:C1 16.98 
*END

*D_NET *56 0.000570662
*CONN
*I *324:A I *D sky130_fd_sc_hd__or4bb_1
*I *320:X O *D sky130_fd_sc_hd__or3b_1
*CAP
1 *324:A 0.000114539
2 *320:X 0.000114539
3 *324:A *324:D_N 0.000120354
4 *324:A *370:A1 4.77757e-05
5 *324:A *401:A 0.000101377
6 *324:A *59:26 9.09788e-06
7 *324:A *60:12 5.83121e-06
8 *324:A *86:27 5.71481e-05
*RES
1 *320:X *324:A 9.825 
*END

*D_NET *57 0.00308642
*CONN
*I *324:B I *D sky130_fd_sc_hd__or4bb_1
*I *321:X O *D sky130_fd_sc_hd__or4b_1
*CAP
1 *324:B 0.000905415
2 *321:X 0.000905415
3 *324:B *324:C_N 0
4 *324:B *351:A1 4.66826e-05
5 *324:B *359:A2 2.16917e-05
6 *324:B *359:B1 0.00012081
7 *324:B *362:A2 7.11235e-06
8 *324:B *388:RESET_B 0.000102411
9 *324:B *401:A 0.000181614
10 *324:B *74:16 1.82667e-05
11 *324:B *80:12 2.47313e-05
12 *324:B *112:129 0.000183036
13 *362:A3 *324:B 0.000522625
14 *388:D *324:B 4.66108e-05
*RES
1 *321:X *324:B 22.005 
*END

*D_NET *58 0.0017636
*CONN
*I *324:C_N I *D sky130_fd_sc_hd__or4bb_1
*I *374:B I *D sky130_fd_sc_hd__and4_1
*I *322:X O *D sky130_fd_sc_hd__and2_1
*CAP
1 *324:C_N 0.00027518
2 *374:B 5.53392e-05
3 *322:X 0.000179928
4 *58:6 0.000510447
5 *324:C_N *369:B 3.52525e-05
6 *324:C_N *375:A1 2.16917e-05
7 *324:C_N *375:B1 8.23457e-05
8 *324:C_N *112:94 1.61831e-05
9 *374:B *76:99 0.000162325
10 *374:B *87:21 6.4422e-05
11 *58:6 *322:B 0.000108753
12 *58:6 *375:A1 3.7712e-05
13 *58:6 *375:B1 4.82863e-05
14 *58:6 *412:A 4.99619e-05
15 *324:B *324:C_N 0
16 *375:A4 *324:C_N 0.00011577
*RES
1 *322:X *58:6 4.81 
2 *58:6 *374:B 7.49 
3 *58:6 *324:C_N 6.205 
*END

*D_NET *59 0.00312964
*CONN
*I *364:A I *D sky130_fd_sc_hd__and2_1
*I *370:A3 I *D sky130_fd_sc_hd__a41o_1
*I *324:D_N I *D sky130_fd_sc_hd__or4bb_1
*I *323:X O *D sky130_fd_sc_hd__and2_1
*CAP
1 *364:A 0
2 *370:A3 0
3 *324:D_N 0.000179277
4 *323:X 0.000165834
5 *59:26 0.000445295
6 *59:16 0.000431852
7 *324:D_N *370:A2 9.09788e-06
8 *324:D_N *401:A 5.22111e-05
9 *324:D_N *60:12 1.20052e-05
10 *324:D_N *111:34 1.08758e-05
11 *59:16 *320:C_N 1.96856e-05
12 *59:16 *338:A2 1.88602e-05
13 *59:16 *370:A4 0.000170804
14 *59:16 *68:10 1.88602e-05
15 *59:16 *74:42 6.32125e-05
16 *59:16 *74:63 1.05827e-05
17 *59:26 *320:B 0.00015673
18 *59:26 *338:A1 0.000192497
19 *59:26 *338:B1_N 3.11771e-06
20 *59:26 *349:B 4.66108e-05
21 *59:26 *370:A2 8.42967e-05
22 *59:26 *370:A4 3.98635e-05
23 *59:26 *370:B1 8.23457e-05
24 *59:26 *68:10 0.000151847
25 *59:26 *74:63 3.85204e-05
26 *59:26 *83:29 9.72943e-05
27 *59:26 *115:75 0.000192393
28 *59:26 *115:77 0.000267771
29 *59:26 *115:90 5.75511e-06
30 *324:A *324:D_N 0.000120354
31 *324:A *59:26 9.09788e-06
32 *375:A4 *324:D_N 3.26889e-05
*RES
1 *323:X *59:16 5.39433 
2 *59:16 *59:26 11.95 
3 *59:26 *324:D_N 7.02 
4 *59:26 *370:A3 3.6 
5 *59:16 *364:A 3.6 
*END

*D_NET *60 0.00357438
*CONN
*I *359:B1 I *D sky130_fd_sc_hd__o211a_1
*I *401:A I *D sky130_fd_sc_hd__buf_2
*I *324:X O *D sky130_fd_sc_hd__or4bb_1
*CAP
1 *359:B1 0.000456265
2 *401:A 0.000310908
3 *324:X 0.000109022
4 *60:12 0.000876195
5 *359:B1 *338:A1 0.000386038
6 *359:B1 *339:C1 5.88634e-05
7 *359:B1 *359:A1 9.11718e-05
8 *359:B1 *362:A1 6.35284e-05
9 *359:B1 *362:A2 6.69608e-06