*SPEF "ieee 1481-1999"
*DESIGN "por_dig"
*DATE "21:05:57 Friday April 12, 2024"
*VENDOR "The OpenROAD Project"
*PROGRAM "OpenROAD"
*VERSION "0889970d1790a2617e69f253221b8bd7626e51dc"
*DESIGN_FLOW "NAME_SCOPE LOCAL" "PIN_CAP NONE"
*DIVIDER /
*DELIMITER :
*BUS_DELIMITER []
*T_UNIT 1 NS
*C_UNIT 1 PF
*R_UNIT 1 OHM
*L_UNIT 1 HENRY

*NAME_MAP
*3 force_dis_rc_osc
*4 force_ena_rc_osc
*5 force_pdn
*6 force_pdnb
*7 force_short_oneshot
*8 osc_ck
*9 osc_ena
*10 otrip[0]
*11 otrip[1]
*12 otrip[2]
*13 otrip_decoded[0]
*14 otrip_decoded[1]
*15 otrip_decoded[2]
*16 otrip_decoded[3]
*17 otrip_decoded[4]
*18 otrip_decoded[5]
*19 otrip_decoded[6]
*20 otrip_decoded[7]
*21 por_timed_out
*22 por_unbuf
*23 pwup_filt
*24 startup_timed_out
*25 _000_
*26 _001_
*27 _002_
*28 _003_
*29 _004_
*30 _005_
*31 _006_
*32 _007_
*33 _008_
*34 _009_
*35 _010_
*36 _011_
*37 _012_
*38 _013_
*39 _014_
*40 _015_
*41 _016_
*42 _017_
*43 _018_
*44 _019_
*45 _020_
*46 _021_
*47 _022_
*48 _023_
*49 _024_
*50 _025_
*51 _026_
*52 _027_
*53 _028_
*54 _029_
*55 _030_
*56 _031_
*57 _032_
*58 _033_
*59 _034_
*60 _035_
*61 _036_
*62 _037_
*63 _038_
*64 _039_
*65 _040_
*66 _041_
*67 _042_
*68 _043_
*69 _044_
*70 _045_
*71 _046_
*72 _047_
*73 _048_
*74 _049_
*75 _050_
*76 _051_
*77 _052_
*78 _053_
*79 clknet_0_osc_ck
*80 clknet_1_0__leaf_osc_ck
*81 clknet_1_1__leaf_osc_ck
*82 cnt_por\[0\]
*83 cnt_por\[10\]
*84 cnt_por\[1\]
*85 cnt_por\[2\]
*86 cnt_por\[3\]
*87 cnt_por\[4\]
*88 cnt_por\[5\]
*89 cnt_por\[6\]
*90 cnt_por\[7\]
*91 cnt_por\[8\]
*92 cnt_por\[9\]
*93 cnt_rsb
*94 cnt_rsb_stg1
*95 cnt_st\[0\]
*96 cnt_st\[1\]
*97 cnt_st\[2\]
*98 cnt_st\[3\]
*99 cnt_st\[4\]
*100 net1
*101 net10
*102 net11
*103 net12
*104 net13
*105 net14
*106 net15
*107 net16
*108 net17
*109 net18
*110 net19
*111 net2
*112 net20
*113 net21
*114 net22
*115 net23
*116 net24
*117 net25
*118 net26
*119 net27
*120 net28
*121 net29
*122 net3
*123 net30
*124 net31
*125 net32
*126 net33
*127 net34
*128 net4
*129 net5
*130 net6
*131 net7
*132 net8
*133 net9
*134 FILLER_0_0_20
*135 FILLER_0_0_3
*136 FILLER_0_0_33
*137 FILLER_0_0_48
*138 FILLER_0_0_57
*139 FILLER_0_0_63
*140 FILLER_0_0_70
*141 FILLER_0_0_77
*142 FILLER_0_0_85
*143 FILLER_0_0_9
*144 FILLER_0_0_97
*145 FILLER_0_10_42
*146 FILLER_0_10_83
*147 FILLER_0_11_10
*148 FILLER_0_11_32
*149 FILLER_0_11_47
*150 FILLER_0_11_55
*151 FILLER_0_11_6
*152 FILLER_0_11_61
*153 FILLER_0_11_94
*154 FILLER_0_12_15
*155 FILLER_0_12_27
*156 FILLER_0_12_29
*157 FILLER_0_12_3
*158 FILLER_0_12_33
*159 FILLER_0_12_39
*160 FILLER_0_12_68
*161 FILLER_0_12_80
*162 FILLER_0_12_93
*163 FILLER_0_12_97
*164 FILLER_0_13_15
*165 FILLER_0_13_3
*166 FILLER_0_13_38
*167 FILLER_0_13_46
*168 FILLER_0_13_78
*169 FILLER_0_13_90
*170 FILLER_0_14_15
*171 FILLER_0_14_29
*172 FILLER_0_14_3
*173 FILLER_0_14_71
*174 FILLER_0_14_83
*175 FILLER_0_14_85
*176 FILLER_0_14_97
*177 FILLER_0_15_15
*178 FILLER_0_15_3
*179 FILLER_0_15_45
*180 FILLER_0_15_54
*181 FILLER_0_15_61
*182 FILLER_0_15_73
*183 FILLER_0_15_85
*184 FILLER_0_15_97
*185 FILLER_0_16_15
*186 FILLER_0_16_27
*187 FILLER_0_16_29
*188 FILLER_0_16_3
*189 FILLER_0_16_36
*190 FILLER_0_16_48
*191 FILLER_0_16_55
*192 FILLER_0_16_61
*193 FILLER_0_16_73
*194 FILLER_0_16_81
*195 FILLER_0_16_85
*196 FILLER_0_16_97
*197 FILLER_0_1_10
*198 FILLER_0_1_16
*199 FILLER_0_1_21
*200 FILLER_0_1_28
*201 FILLER_0_1_41
*202 FILLER_0_1_6
*203 FILLER_0_1_64
*204 FILLER_0_1_76
*205 FILLER_0_1_88
*206 FILLER_0_1_96
*207 FILLER_0_2_19
*208 FILLER_0_2_27
*209 FILLER_0_2_29
*210 FILLER_0_2_37
*211 FILLER_0_2_46
*212 FILLER_0_2_57
*213 FILLER_0_2_69
*214 FILLER_0_2_7
*215 FILLER_0_2_81
*216 FILLER_0_2_85
*217 FILLER_0_2_97
*218 FILLER_0_3_10
*219 FILLER_0_3_22
*220 FILLER_0_3_52
*221 FILLER_0_3_61
*222 FILLER_0_3_73
*223 FILLER_0_3_85
*224 FILLER_0_3_97
*225 FILLER_0_4_13
*226 FILLER_0_4_25
*227 FILLER_0_4_29
*228 FILLER_0_4_3
*229 FILLER_0_4_33
*230 FILLER_0_4_62
*231 FILLER_0_4_85
*232 FILLER_0_4_97
*233 FILLER_0_5_3
*234 FILLER_0_5_52
*235 FILLER_0_5_57
*236 FILLER_0_5_84
*237 FILLER_0_5_90
*238 FILLER_0_5_96
*239 FILLER_0_6_23
*240 FILLER_0_6_97
*241 FILLER_0_7_23
*242 FILLER_0_7_55
*243 FILLER_0_7_65
*244 FILLER_0_7_77
*245 FILLER_0_8_27
*246 FILLER_0_8_66
*247 FILLER_0_8_78
*248 FILLER_0_8_96
*249 FILLER_0_9_13
*250 FILLER_0_9_3
*251 FILLER_0_9_55
*252 FILLER_0_9_61
*253 FILLER_0_9_83
*254 FILLER_0_9_96
*255 PHY_EDGE_ROW_0_Left_17
*256 PHY_EDGE_ROW_0_Right_0
*257 PHY_EDGE_ROW_10_Left_27
*258 PHY_EDGE_ROW_10_Right_10
*259 PHY_EDGE_ROW_11_Left_28
*260 PHY_EDGE_ROW_11_Right_11
*261 PHY_EDGE_ROW_12_Left_29
*262 PHY_EDGE_ROW_12_Right_12
*263 PHY_EDGE_ROW_13_Left_30
*264 PHY_EDGE_ROW_13_Right_13
*265 PHY_EDGE_ROW_14_Left_31
*266 PHY_EDGE_ROW_14_Right_14
*267 PHY_EDGE_ROW_15_Left_32
*268 PHY_EDGE_ROW_15_Right_15
*269 PHY_EDGE_ROW_16_Left_33
*270 PHY_EDGE_ROW_16_Right_16
*271 PHY_EDGE_ROW_1_Left_18
*272 PHY_EDGE_ROW_1_Right_1
*273 PHY_EDGE_ROW_2_Left_19
*274 PHY_EDGE_ROW_2_Right_2
*275 PHY_EDGE_ROW_3_Left_20
*276 PHY_EDGE_ROW_3_Right_3
*277 PHY_EDGE_ROW_4_Left_21
*278 PHY_EDGE_ROW_4_Right_4
*279 PHY_EDGE_ROW_5_Left_22
*280 PHY_EDGE_ROW_5_Right_5
*281 PHY_EDGE_ROW_6_Left_23
*282 PHY_EDGE_ROW_6_Right_6
*283 PHY_EDGE_ROW_7_Left_24
*284 PHY_EDGE_ROW_7_Right_7
*285 PHY_EDGE_ROW_8_Left_25
*286 PHY_EDGE_ROW_8_Right_8
*287 PHY_EDGE_ROW_9_Left_26
*288 PHY_EDGE_ROW_9_Right_9
*289 TAP_TAPCELL_ROW_0_34
*290 TAP_TAPCELL_ROW_0_35
*291 TAP_TAPCELL_ROW_0_36
*292 TAP_TAPCELL_ROW_10_50
*293 TAP_TAPCELL_ROW_10_51
*294 TAP_TAPCELL_ROW_11_52
*295 TAP_TAPCELL_ROW_12_53
*296 TAP_TAPCELL_ROW_12_54
*297 TAP_TAPCELL_ROW_13_55
*298 TAP_TAPCELL_ROW_14_56
*299 TAP_TAPCELL_ROW_14_57
*300 TAP_TAPCELL_ROW_15_58
*301 TAP_TAPCELL_ROW_16_59
*302 TAP_TAPCELL_ROW_16_60
*303 TAP_TAPCELL_ROW_16_61
*304 TAP_TAPCELL_ROW_1_37
*305 TAP_TAPCELL_ROW_2_38
*306 TAP_TAPCELL_ROW_2_39
*307 TAP_TAPCELL_ROW_3_40
*308 TAP_TAPCELL_ROW_4_41
*309 TAP_TAPCELL_ROW_4_42
*310 TAP_TAPCELL_ROW_5_43
*311 TAP_TAPCELL_ROW_6_44
*312 TAP_TAPCELL_ROW_6_45
*313 TAP_TAPCELL_ROW_7_46
*314 TAP_TAPCELL_ROW_8_47
*315 TAP_TAPCELL_ROW_8_48
*316 TAP_TAPCELL_ROW_9_49
*317 _054_
*318 _055_
*319 _056_
*320 _057_
*321 _058_
*322 _059_
*323 _060_
*324 _061_
*325 _062_
*326 _063_
*327 _064_
*328 _065_
*329 _066_
*330 _067_
*331 _068_
*332 _069_
*333 _070_
*334 _071_
*335 _072_
*336 _073_
*337 _074_
*338 _075_
*339 _076_
*340 _077_
*341 _078_
*342 _079_
*343 _080_
*344 _081_
*345 _082_
*346 _083_
*347 _084_
*348 _085_
*349 _086_
*350 _087_
*351 _088_
*352 _089_
*353 _090_
*354 _091_
*355 _092_
*356 _093_
*357 _094_
*358 _095_
*359 _096_
*360 _097_
*361 _098_
*362 _099_
*363 _100_
*364 _101_
*365 _102_
*366 _103_
*367 _104_
*368 _105_
*369 _106_
*370 _107_
*371 _108_
*372 _109_
*373 _110_
*374 _111_
*375 _112_
*376 _113_
*377 _114_
*378 _115_
*379 _116_
*380 _117_
*381 _118_
*382 _119_
*383 _120_
*384 _121_
*385 _122_
*386 _123_
*387 _124_
*388 _125_
*389 _126_
*390 _127_
*391 _128_
*392 _129_
*393 _130_
*394 _131_
*395 _132_
*396 _133_
*397 _134_
*398 _135_
*399 _136_
*400 _137_
*401 _137__26
*402 _138_
*403 clkbuf_0_osc_ck
*404 clkbuf_1_0__f_osc_ck
*405 clkbuf_1_1__f_osc_ck
*406 fanout22
*407 fanout23
*408 fanout24
*409 fanout25
*410 hold1
*411 hold2
*412 hold3
*413 hold4
*414 hold5
*415 hold6
*416 hold7
*417 hold8
*418 input1
*419 input2
*420 input3
*421 input4
*422 input5
*423 input6
*424 input7
*425 input8
*426 output10
*427 output11
*428 output12
*429 output13
*430 output14
*431 output15
*432 output16
*433 output17
*434 output18
*435 output19
*436 output20
*437 output21
*438 output9

*PORTS
force_dis_rc_osc I
force_ena_rc_osc I
force_pdn I
force_pdnb O
force_short_oneshot I
osc_ck I
osc_ena O
otrip[0] I
otrip[1] I
otrip[2] I
otrip_decoded[0] O
otrip_decoded[1] O
otrip_decoded[2] O
otrip_decoded[3] O
otrip_decoded[4] O
otrip_decoded[5] O
otrip_decoded[6] O
otrip_decoded[7] O
por_timed_out O
por_unbuf O
pwup_filt I
startup_timed_out O

*D_NET *3 0.00155392
*CONN
*P force_dis_rc_osc I
*I *418:A I *D sky130_fd_sc_hd__clkbuf_1
*CAP
1 force_dis_rc_osc 0.000540169
2 *418:A 0.000540169
3 *418:A por_timed_out 0.000122901
4 *418:A *337:A 0.000137743
5 *418:A *411:A 0.000172083
6 *418:A *425:A 4.08548e-05
*RES
1 force_dis_rc_osc *418:A 12.9139 
*END

*D_NET *4 0.000833508
*CONN
*P force_ena_rc_osc I
*I *419:A I *D sky130_fd_sc_hd__clkbuf_1
*CAP
1 force_ena_rc_osc 0.000328751
2 *419:A 0.000328751
3 *419:A force_pdnb 8.10018e-05
4 *419:A osc_ena 9.50048e-05
*RES
1 force_ena_rc_osc *419:A 5.19637 
*END

*D_NET *5 0.000538577
*CONN
*P force_pdn I
*I *420:A I *D sky130_fd_sc_hd__clkbuf_1
*CAP
1 force_pdn 0.000253668
2 *420:A 0.000253668
3 *420:A force_pdnb 3.12401e-05
*RES
1 force_pdn *420:A 5.61177 
*END

*D_NET *6 0.00069409
*CONN
*P force_pdnb O
*I *438:X O *D sky130_fd_sc_hd__buf_2
*CAP
1 force_pdnb 0.000290924
2 *438:X 0.000290924
3 force_pdnb *438:A 0
4 *419:A force_pdnb 8.10018e-05
5 *420:A force_pdnb 3.12401e-05
*RES
1 *438:X force_pdnb 6.4495 
*END

*D_NET *7 0.00079648
*CONN
*P force_short_oneshot I
*I *421:A I *D sky130_fd_sc_hd__buf_2
*CAP
1 force_short_oneshot 0.000378454
2 *421:A 0.000378454
3 *421:A startup_timed_out 0
4 *421:A *348:B1 0
5 *421:A *437:A 3.95724e-05
*RES
1 force_short_oneshot *421:A 8.22523 
*END

*D_NET *8 0.00415219
*CONN
*P osc_ck I
*I *403:A I *D sky130_fd_sc_hd__clkbuf_16
*CAP
1 osc_ck 0.00166276
2 *403:A 0.00166276
3 *403:A *359:C 0.000254599
4 *403:A *370:A3 7.06865e-05
5 *403:A *370:B1 0.000157602
6 *403:A *371:B1 0
7 *403:A *58:14 0
8 *403:A *87:12 0.000179015
9 *403:A *87:27 4.82919e-05
10 *403:A *89:49 5.14673e-05
11 *403:A *116:14 6.5018e-05
12 *403:A *128:92 0
*RES
1 osc_ck *403:A 16.3344 
*END

*D_NET *9 0.000812548
*CONN
*P osc_ena O
*I *426:X O *D sky130_fd_sc_hd__buf_2
*CAP
1 osc_ena 0.000290229
2 *426:X 0.000290229
3 osc_ena *338:A_N 0
4 osc_ena *338:B 1.88602e-05
5 osc_ena *425:A 4.41979e-05
6 osc_ena *426:A 7.4027e-05
7 *419:A osc_ena 9.50048e-05
*RES
1 *426:X osc_ena 6.94503 
*END

*D_NET *10 0.000763257
*CONN
*P otrip[0] I
*I *422:A I *D sky130_fd_sc_hd__dlymetal6s2s_1
*CAP
1 otrip[0] 0.000381629
2 *422:A 0.000381629
3 *422:A otrip_decoded[1] 0
*RES
1 otrip[0] *422:A 10.455 
*END

*D_NET *11 0.00106374
*CONN
*P otrip[1] I
*I *423:A I *D sky130_fd_sc_hd__dlymetal6s2s_1
*CAP
1 otrip[1] 0.000504868
2 *423:A 0.000504868
3 *423:A otrip_decoded[2] 0
4 *423:A *424:A 0
5 *423:A *429:A 0
6 *423:A *431:A 0
7 *423:A *130:36 5.4003e-05
*RES
1 otrip[1] *423:A 12.495 
*END

*D_NET *12 0.000857177
*CONN
*P otrip[2] I
*I *424:A I *D sky130_fd_sc_hd__dlymetal6s2s_1
*CAP
1 otrip[2] 0.000316788
2 *424:A 0.000316788
3 *424:A otrip_decoded[4] 0.000220001
4 *424:A *431:A 3.60024e-06
5 *423:A *424:A 0
*RES
1 otrip[2] *424:A 10.35 
*END

*D_NET *13 0.000876668
*CONN
*P otrip_decoded[0] O
*I *427:X O *D sky130_fd_sc_hd__buf_2
*CAP
1 otrip_decoded[0] 0.000438334
2 *427:X 0.000438334
3 otrip_decoded[0] otrip_decoded[3] 0
*RES
1 *427:X otrip_decoded[0] 10.53 
*END

*D_NET *14 0.00106285
*CONN
*P otrip_decoded[1] O
*I *428:X O *D sky130_fd_sc_hd__buf_2
*CAP
1 otrip_decoded[1] 0.000531427
2 *428:X 0.000531427
3 otrip_decoded[1] otrip_decoded[2] 0
4 otrip_decoded[1] *330:B 0
5 otrip_decoded[1] *428:A 0
6 otrip_decoded[1] *129:12 0
7 *422:A otrip_decoded[1] 0
*RES
1 *428:X otrip_decoded[1] 12.225 
*END

*D_NET *15 0.00124962
*CONN
*P otrip_decoded[2] O
*I *429:X O *D sky130_fd_sc_hd__buf_2
*CAP
1 otrip_decoded[2] 0.000545018
2 *429:X 0.000545018
3 otrip_decoded[2] *429:A 5.30673e-05
4 otrip_decoded[2] *129:6 7.35813e-05
5 otrip_decoded[2] *131:19 3.29341e-05
6 otrip_decoded[1] otrip_decoded[2] 0
7 *423:A otrip_decoded[2] 0
*RES
1 *429:X otrip_decoded[2] 12.255 
*END

*D_NET *16 0.000876668
*CONN
*P otrip_decoded[3] O
*I *430:X O *D sky130_fd_sc_hd__buf_2
*CAP
1 otrip_decoded[3] 0.000438334
2 *430:X 0.000438334
3 otrip_decoded[3] otrip_decoded[7] 0
4 otrip_decoded[0] otrip_decoded[3] 0
*RES
1 *430:X otrip_decoded[3] 10.53 
*END

*D_NET *17 0.00125442
*CONN
*P otrip_decoded[4] O
*I *431:X O *D sky130_fd_sc_hd__buf_2
*CAP
1 otrip_decoded[4] 0.000482026
2 *431:X 0.000482026
3 otrip_decoded[4] otrip_decoded[6] 0
4 otrip_decoded[4] *431:A 4.80182e-05
5 otrip_decoded[4] *131:19 2.23477e-05
6 *424:A otrip_decoded[4] 0.000220001
*RES
1 *431:X otrip_decoded[4] 14.04 
*END

*D_NET *18 0.000948522
*CONN
*P otrip_decoded[5] O
*I *432:X O *D sky130_fd_sc_hd__buf_2
*CAP
1 otrip_decoded[5] 0.000411811
2 *432:X 0.000411811
3 otrip_decoded[5] otrip_decoded[6] 0
4 otrip_decoded[5] otrip_decoded[7] 0
5 otrip_decoded[5] *434:A 0.0001249
*RES
1 *432:X otrip_decoded[5] 10.53 
*END

*D_NET *19 0.00181632
*CONN
*P otrip_decoded[6] O
*I *433:X O *D sky130_fd_sc_hd__buf_2
*CAP
1 otrip_decoded[6] 0.000670882
2 *433:X 0.000670882
3 otrip_decoded[6] *329:B 3.60648e-06
4 otrip_decoded[6] *336:C 0.000221198
5 otrip_decoded[6] *427:A 1.17409e-05
6 otrip_decoded[6] *433:A 0.000104649
7 otrip_decoded[6] *129:55 7.88537e-05
8 otrip_decoded[6] *129:74 5.38986e-06
9 otrip_decoded[6] *130:47 2.75538e-05
10 otrip_decoded[6] *131:52 2.15594e-05
11 otrip_decoded[4] otrip_decoded[6] 0
12 otrip_decoded[5] otrip_decoded[6] 0
*RES
1 *433:X otrip_decoded[6] 15.93 
*END

*D_NET *20 0.000887282
*CONN
*P otrip_decoded[7] O
*I *434:X O *D sky130_fd_sc_hd__buf_2
*CAP
1 otrip_decoded[7] 0.000429879
2 *434:X 0.000429879
3 otrip_decoded[7] *434:A 2.75229e-05
4 otrip_decoded[3] otrip_decoded[7] 0
5 otrip_decoded[5] otrip_decoded[7] 0
*RES
1 *434:X otrip_decoded[7] 10.53 
*END

*D_NET *21 0.000486587
*CONN
*P por_timed_out O
*I *435:X O *D sky130_fd_sc_hd__buf_2
*CAP
1 por_timed_out 0.000172194
2 *435:X 0.000172194
3 por_timed_out *411:A 1.92979e-05
4 *418:A por_timed_out 0.000122901
*RES
1 *435:X por_timed_out 4.90503 
*END

*D_NET *22 0.00125209
*CONN
*P por_unbuf O
*I *436:X O *D sky130_fd_sc_hd__buf_2
*CAP
1 por_unbuf 0.000543871
2 *436:X 0.000543871
3 por_unbuf *112:38 0.000164352
*RES
1 *436:X por_unbuf 12.42 
*END

*D_NET *23 0.00135626
*CONN
*P pwup_filt I
*I *425:A I *D sky130_fd_sc_hd__buf_1
*CAP
1 pwup_filt 0.000585226
2 *425:A 0.000585226
3 *425:A *337:A 0
4 *425:A *338:B 0.000100757
5 osc_ena *425:A 4.41979e-05
6 *418:A *425:A 4.08548e-05
*RES
1 pwup_filt *425:A 12.4437 
*END

*D_NET *24 0.00118713
*CONN
*P startup_timed_out O
*I *437:X O *D sky130_fd_sc_hd__buf_2
*CAP
1 startup_timed_out 0.000417165
2 *437:X 0.000417165
3 startup_timed_out *340:B 6.57653e-06
4 startup_timed_out *345:A1 0.000143266
5 startup_timed_out *348:B1 0.00018471
6 startup_timed_out *113:21 1.82476e-05
7 *421:A startup_timed_out 0
*RES
1 *437:X startup_timed_out 9.0433 
*END

*D_NET *25 0.000998339
*CONN
*I *384:D I *D sky130_fd_sc_hd__dfrtp_1
*I *341:Y O *D sky130_fd_sc_hd__nand2_1
*CAP
1 *384:D 0.000368834
2 *341:Y 0.000368834
3 *384:D *319:B 0.000163204
4 *384:D *341:B 1.08758e-05
5 *384:D *95:23 8.65905e-05
*RES
1 *341:Y *384:D 9.515 
*END

*D_NET *26 0.00157069
*CONN
*I *385:D I *D sky130_fd_sc_hd__dfrtp_1
*I *343:X O *D sky130_fd_sc_hd__a211o_1
*CAP
1 *385:D 0.000560354
2 *343:X 0.000560354
3 *385:D *386:D 0.000198663
4 *385:D *386:RESET_B 0.000251321
*RES
1 *343:X *385:D 14.985 
*END

*D_NET *27 0.00167703
*CONN
*I *386:D I *D sky130_fd_sc_hd__dfrtp_1
*I *345:Y O *D sky130_fd_sc_hd__o21ai_1
*CAP
1 *386:D 0.000496541
2 *345:Y 0.000496541
3 *386:D *343:B1 8.73389e-06
4 *386:D *345:B1 0.000234674
5 *386:D *386:RESET_B 0.000118651
6 *386:D *97:8 0.000123225
7 *385:D *386:D 0.000198663
*RES
1 *345:Y *386:D 13.085 
*END

*D_NET *28 0.0016909
*CONN
*I *387:D I *D sky130_fd_sc_hd__dfrtp_1
*I *349:X O *D sky130_fd_sc_hd__o21a_1
*CAP
1 *387:D 0.000632416
2 *349:X 0.000632416
3 *387:D *320:C 4.94404e-05
4 *387:D *67:12 7.23602e-05
5 *387:D *98:10 0
6 *387:D *117:24 0.000280836
7 *387:D *128:40 2.34345e-05
*RES
1 *349:X *387:D 18.765 
*END

*D_NET *29 0.000422416
*CONN
*I *388:D I *D sky130_fd_sc_hd__dfrtp_1
*I *351:X O *D sky130_fd_sc_hd__a21bo_1
*CAP
1 *388:D 0.000171279
2 *351:X 0.000171279
3 *388:D *387:CLK 5.83121e-06
4 *388:D *399:RESET_B 0
5 *388:D *128:58 7.4027e-05
*RES
1 *351:X *388:D 9.915 
*END

*D_NET *30 0.000596584
*CONN
*I *389:D I *D sky130_fd_sc_hd__dfrtp_4
*I *353:X O *D sky130_fd_sc_hd__mux2_1
*CAP
1 *389:D 0.000152307
2 *353:X 0.000152307
3 *389:D *81:25 0.000181789
4 *389:D *84:59 9.30787e-05
5 *389:D *84:72 1.71013e-05
*RES
1 *353:X *389:D 9.81 
*END

*D_NET *31 0.000638847
*CONN
*I *390:D I *D sky130_fd_sc_hd__dfrtp_2
*I *358:Y O *D sky130_fd_sc_hd__o21ai_1
*CAP
1 *390:D 0.000169159
2 *358:Y 0.000169159
3 *390:D *358:B1 0.000273015
4 *390:D *59:12 0
5 *390:D *84:6 2.75145e-05
*RES
1 *358:Y *390:D 10.815 
*END

*D_NET *32 0.000601551
*CONN
*I *391:D I *D sky130_fd_sc_hd__dfrtp_1
*I *361:X O *D sky130_fd_sc_hd__a21o_1
*CAP
1 *391:D 0.000214808
2 *361:X 0.000214808
3 *391:D *361:A2 0
4 *391:D *391:CLK 4.70343e-05
5 *391:D *81:40 0.0001249
*RES
1 *361:X *391:D 10.41 
*END

*D_NET *33 0.000232122
*CONN
*I *392:D I *D sky130_fd_sc_hd__dfrtp_1
*I *364:X O *D sky130_fd_sc_hd__a21o_1
*CAP
1 *392:D 8.99062e-05
2 *364:X 8.99062e-05
3 *392:D *361:A1 5.23093e-05
*RES
1 *364:X *392:D 8.775 
*END

*D_NET *34 0.00114595
*CONN
*I *393:D I *D sky130_fd_sc_hd__dfrtp_1
*I *367:Y O *D sky130_fd_sc_hd__o21ai_1
*CAP
1 *393:D 0.000406744
2 *367:Y 0.000406744
3 *393:D *367:A1 0.000137199
4 *393:D *405:A 1.43729e-05
5 *393:D *116:74 0.000180887
*RES
1 *367:Y *393:D 13.86 
*END

*D_NET *35 0.00120892
*CONN
*I *394:D I *D sky130_fd_sc_hd__dfrtp_1
*I *371:X O *D sky130_fd_sc_hd__a21o_1
*CAP
1 *394:D 0.000390884
2 *371:X 0.000390884
3 *394:D *394:RESET_B 8.07672e-05
4 *394:D *395:RESET_B 3.59784e-05
5 *394:D *44:27 0.000113797
6 *394:D *116:14 8.28092e-05
7 *394:D *128:105 0.000113797
*RES
1 *371:X *394:D 12.84 
*END

*D_NET *36 0.00242846
*CONN
*I *395:D I *D sky130_fd_sc_hd__dfrtp_1
*I *374:Y O *D sky130_fd_sc_hd__o21ai_1
*CAP
1 *395:D 0.000393362
2 *374:Y 0.000393362
3 *395:D *370:A2 0.000239145
4 *395:D *370:A3 1.06624e-05
5 *395:D *371:A2 4.89295e-05
6 *395:D *376:C 8.40213e-05
7 *395:D *376:D 9.9668e-05
8 *395:D *393:RESET_B 2.58985e-05
9 *395:D *395:CLK 6.97118e-05
10 *395:D *58:14 0.000114201
11 *395:D *58:29 5.1776e-05
12 *395:D *89:6 0.000235568
13 *395:D *89:13 0.000263595
14 *395:D *89:49 0.000341386
15 *395:D *116:74 5.71704e-05
*RES
1 *374:Y *395:D 18.27 
*END

*D_NET *37 0.00172438
*CONN
*I *396:D I *D sky130_fd_sc_hd__dfrtp_1
*I *377:X O *D sky130_fd_sc_hd__a21o_1
*CAP
1 *396:D 0.00049224
2 *377:X 0.00049224
3 *396:D *395:CLK 0.000116853
4 *396:D *395:RESET_B 0.00015829
5 *396:D *400:D 0.000460866
6 *396:D *402:D 0
7 *396:D *435:A 3.89228e-06
*RES
1 *377:X *396:D 16.0688 
*END

*D_NET *38 0.00252589
*CONN
*I *397:D I *D sky130_fd_sc_hd__dfrtp_1
*I *380:Y O *D sky130_fd_sc_hd__xnor2_1
*CAP
1 *397:D 0.000834867
2 *380:Y 0.000834867
3 *397:D *325:B 7.06865e-05
4 *397:D *379:A2 0
5 *397:D *380:A 6.61627e-05
6 *397:D *382:B 0
7 *397:D *383:B 0.000157752
8 *397:D *410:A 0
9 *397:D *60:18 1.01911e-05
10 *397:D *62:20 0
11 *397:D *80:6 4.77719e-05
12 *397:D *80:23 4.82919e-05
13 *397:D *80:58 0.000118207
14 *397:D *91:12 0.000119392
15 *397:D *91:29 0.000217696
*RES
1 *380:Y *397:D 22.44 
*END

*D_NET *39 0.000333983
*CONN
*I *398:D I *D sky130_fd_sc_hd__dfrtp_1
*I *382:X O *D sky130_fd_sc_hd__xor2_1
*CAP
1 *398:D 0.000113549
2 *382:X 0.000113549
3 *398:D *382:A 4.89295e-05
4 *398:D *382:B 0
5 *398:D *383:B 5.79555e-05
*RES
1 *382:X *398:D 9.54 
*END

*D_NET *40 0.0013106
*CONN
*I *399:D I *D sky130_fd_sc_hd__dfrtp_1
*I *383:X O *D sky130_fd_sc_hd__xor2_1
*CAP
1 *399:D 0.000330406
2 *383:X 0.000330406
3 *399:D *382:A 4.89295e-05
4 *399:D *383:A 0.000199405
5 *399:D *404:A 3.38895e-05
6 *399:D *408:A 3.09233e-05
7 *399:D *409:A 0
8 *399:D *413:A 0.000141626
9 *399:D *80:33 0.000160651
10 *399:D *92:18 3.43604e-05
*RES
1 *383:X *399:D 15 
*END

*D_NET *41 0.00207614
*CONN
*I *364:A2 I *D sky130_fd_sc_hd__a21o_1
*I *363:Y O *D sky130_fd_sc_hd__nand2_1
*CAP
1 *364:A2 0.000396801
2 *363:Y 0.000396801
3 *364:A2 *324:C 4.18421e-05
4 *364:A2 *361:A2 0
5 *364:A2 *362:A1 4.66108e-05
6 *364:A2 *362:A4 0.000331758
7 *364:A2 *362:B1 3.53405e-05
8 *364:A2 *363:A 0.000198614
9 *364:A2 *364:A1 5.34747e-05
10 *364:A2 *364:B1 4.00541e-06
11 *364:A2 *81:40 0.000458774
12 *364:A2 *85:10 0.000112123
*RES
1 *363:Y *364:A2 17.055 
*END

*D_NET *42 0.00147853
*CONN
*I *367:A1 I *D sky130_fd_sc_hd__o21ai_1
*I *365:X O *D sky130_fd_sc_hd__and3_1
*CAP
1 *367:A1 0.000266742
2 *365:X 0.000266742
3 *367:A1 *325:A 0
4 *367:A1 *365:B 6.23288e-05
5 *367:A1 *367:A2 0.000316118
6 *367:A1 *381:B1 8.73147e-06
7 *367:A1 *404:A 7.03383e-05
8 *367:A1 *405:A 5.56784e-05
9 *367:A1 *408:A 2.99445e-05
10 *367:A1 *58:29 5.00699e-05
11 *367:A1 *73:10 8.49205e-05
12 *367:A1 *110:18 4.13769e-05
13 *367:A1 *114:10 4.80285e-05
14 *367:A1 *116:74 4.03082e-05
15 *393:D *367:A1 0.000137199
*RES
1 *365:X *367:A1 14.985 
*END

*D_NET *43 0.00130825
*CONN
*I *367:A2 I *D sky130_fd_sc_hd__o21ai_1
*I *366:Y O *D sky130_fd_sc_hd__a21oi_1
*CAP
1 *367:A2 0.000261628
2 *366:Y 0.000261628
3 *367:A2 *366:B1 8.30403e-05
4 *367:A2 *405:A 0.000316118
5 *367:A2 *87:27 6.97118e-05
6 *367:A1 *367:A2 0.000316118
*RES
1 *366:Y *367:A2 13.755 
*END

*D_NET *44 0.00523226
*CONN
*I *373:C I *D sky130_fd_sc_hd__and3_1
*I *372:A2 I *D sky130_fd_sc_hd__a21oi_1
*I *369:B I *D sky130_fd_sc_hd__nand2_1
*I *376:D I *D sky130_fd_sc_hd__nand4_1
*I *375:A3 I *D sky130_fd_sc_hd__a31o_1
*I *368:X O *D sky130_fd_sc_hd__and3_1
*CAP
1 *373:C 0.000203873
2 *372:A2 9.67468e-06
3 *369:B 0.000219286
4 *376:D 0.000149796
5 *375:A3 5.34119e-05
6 *368:X 0.000458383
7 *44:59 0.000318949
8 *44:40 0.000361917
9 *44:27 0.000301816
10 *44:12 0.000626585
11 *369:B *371:A1 0.0001947
12 *369:B *377:A1 1.17309e-05
13 *369:B *400:D 0
14 *369:B *72:8 0
15 *369:B *114:33 0
16 *372:A2 *372:A1 1.7047e-05
17 *372:A2 *114:33 2.16355e-05
18 *373:C *372:A1 2.63222e-05
19 *373:C *372:B1 2.23611e-05
20 *373:C *373:A 4.82863e-05
21 *373:C *89:49 2.48477e-05
22 *373:C *114:29 6.62785e-06
23 *373:C *114:33 1.4904e-06
24 *375:A3 *325:C 3.09164e-05
25 *375:A3 *375:A2 5.3161e-05
26 *375:A3 *375:B1 2.04101e-05
27 *375:A3 *380:B 0
28 *375:A3 *89:21 8.68163e-06
29 *375:A3 *90:10 2.16833e-05
30 *375:A3 *128:105 2.7881e-05
31 *376:D *376:C 8.40213e-05
32 *376:D *377:A2 3.00381e-05
33 *44:12 *365:B 0.000198939
34 *44:12 *368:A 0.000345353
35 *44:12 *368:B 4.66108e-05
36 *44:12 *375:B1 0.000108531
37 *44:12 *380:A 2.23589e-05
38 *44:12 *380:B 0.000168342
39 *44:12 *90:10 4.66108e-05
40 *44:12 *116:10 4.77757e-05
41 *44:27 *371:B1 3.09164e-05
42 *44:27 *87:12 0
43 *44:27 *89:21 0.000136313
44 *44:27 *128:105 0.000104782
45 *44:40 *371:B1 0.000116853
46 *44:40 *128:105 5.92191e-05
47 *44:59 *371:B1 7.1009e-05
48 *44:59 *72:8 4.82863e-05
49 *44:59 *114:33 8.13534e-05
50 *44:59 *128:92 6.56448e-06
51 *44:59 *128:105 2.34423e-05
52 *394:D *44:27 0.000113797
53 *395:D *376:D 9.9668e-05
*RES
1 *368:X *44:12 12.45 
2 *44:12 *375:A3 5.025 
3 *44:12 *44:27 3.675 
4 *44:27 *376:D 6.48 
5 *44:27 *44:40 1.38 
6 *44:40 *369:B 6.645 
7 *44:40 *44:59 4.5425 
8 *44:59 *372:A2 2.12125 
9 *44:59 *373:C 4.3675 
*END

*D_NET *45 0.000981149
*CONN
*I *371:A1 I *D sky130_fd_sc_hd__a21o_1
*I *369:Y O *D sky130_fd_sc_hd__nand2_1
*CAP
1 *371:A1 0.000222021
2 *369:Y 0.000222021
3 *371:A1 *371:B1 0.000150214
4 *371:A1 *377:A1 3.64998e-06
5 *371:A1 *72:8 6.07575e-06
6 *371:A1 *114:33 0.000119756
7 *371:A1 *114:35 6.27114e-05
8 *369:B *371:A1 0.0001947
*RES
1 *369:Y *371:A1 12.165 
*END

*D_NET *46 0.000128212
*CONN
*I *371:A2 I *D sky130_fd_sc_hd__a21o_1
*I *370:X O *D sky130_fd_sc_hd__a31o_1
*CAP
1 *371:A2 3.70762e-05
2 *370:X 3.70762e-05
3 *371:A2 *370:A3 5.12969e-06
4 *395:D *371:A2 4.89295e-05
*RES
1 *370:X *371:A2 4.01 
*END

*D_NET *47 0.000572184
*CONN
*I *374:A1 I *D sky130_fd_sc_hd__o21ai_1
*I *372:Y O *D sky130_fd_sc_hd__a21oi_1
*CAP
1 *374:A1 8.63623e-05
2 *372:Y 8.63623e-05
3 *374:A1 *372:A1 5.12969e-06
4 *374:A1 *372:B1 8.6076e-05
5 *374:A1 *374:A2 3.77326e-05
6 *374:A1 *73:10 0
7 *374:A1 *89:49 7.32549e-05
8 *374:A1 *114:10 0.000125686
9 *374:A1 *114:29 7.15807e-05
*RES
1 *372:Y *374:A1 6.095 
*END

*D_NET *48 0.00021766
*CONN
*I *374:A2 I *D sky130_fd_sc_hd__o21ai_1
*I *373:X O *D sky130_fd_sc_hd__and3_1
*CAP
1 *374:A2 8.17972e-05
2 *373:X 8.17972e-05
3 *374:A2 *373:A 3.21081e-06
4 *374:A2 *114:10 1.31227e-05
5 *374:A1 *374:A2 3.77326e-05
*RES
1 *373:X *374:A2 4.715 
*END

*D_NET *49 0.00169193
*CONN
*I *377:A1 I *D sky130_fd_sc_hd__a21o_1
*I *375:X O *D sky130_fd_sc_hd__a31o_1
*CAP
1 *377:A1 0.000364651
2 *375:X 0.000364651
3 *377:A1 *375:A2 7.22354e-05
4 *377:A1 *377:A2 7.89689e-05
5 *377:A1 *394:RESET_B 0
6 *377:A1 *400:D 0
7 *377:A1 *72:8 0.000124895
8 *377:A1 *72:16 0
9 *377:A1 *90:6 2.0514e-05
10 *377:A1 *90:10 8.57024e-05
11 *377:A1 *114:39 0.000195231
12 *377:A1 *114:45 0.000333496
13 *377:A1 *114:51 3.00381e-05
14 *377:A1 *116:34 0
15 *377:A1 *128:92 6.17113e-06
16 *369:B *377:A1 1.17309e-05
17 *371:A1 *377:A1 3.64998e-06
*RES
1 *375:X *377:A1 16.305 
*END

*D_NET *50 0.000335935
*CONN
*I *377:A2 I *D sky130_fd_sc_hd__a21o_1
*I *376:Y O *D sky130_fd_sc_hd__nand4_1
*CAP
1 *377:A2 9.50297e-05
2 *376:Y 9.50297e-05
3 *377:A2 *395:CLK 0
4 *377:A2 *400:D 3.68682e-05
5 *376:D *377:A2 3.00381e-05
6 *377:A1 *377:A2 7.89689e-05
*RES
1 *376:Y *377:A2 9.285 
*END

*D_NET *51 0.00185594
*CONN
*I *380:B I *D sky130_fd_sc_hd__xnor2_1
*I *378:Y O *D sky130_fd_sc_hd__o21ai_1
*CAP
1 *380:B 0.000433795
2 *378:Y 0.000433795
3 *380:B *327:C 4.24562e-05
4 *380:B *375:A2 0.00023519
5 *380:B *375:B1 2.72392e-05
6 *380:B *379:B1 9.50342e-06
7 *380:B *380:A 0.000121547
8 *380:B *114:51 0.000302241
9 *380:B *128:105 8.18295e-05
10 *375:A3 *380:B 0
11 *44:12 *380:B 0.000168342
*RES
1 *378:Y *380:B 16.02 
*END

*D_NET *52 0.000828532
*CONN
*I *382:B I *D sky130_fd_sc_hd__xor2_1
*I *379:X O *D sky130_fd_sc_hd__o211a_1
*CAP
1 *382:B 0.000414266
2 *379:X 0.000414266
3 *382:B *397:RESET_B 0
4 *382:B *398:CLK 0
5 *382:B *80:58 0
6 *382:B *91:12 0
7 *397:D *382:B 0
8 *398:D *382:B 0
*RES
1 *379:X *382:B 13.71 
*END

*D_NET *53 0.0013232
*CONN
*I *383:B I *D sky130_fd_sc_hd__xor2_1
*I *381:X O *D sky130_fd_sc_hd__o2111a_1
*CAP
1 *383:B 0.000423053
2 *381:X 0.000423053
3 *383:B *398:CLK 7.71016e-05
4 *383:B *60:18 1.88656e-05
5 *383:B *61:24 6.86547e-05
6 *383:B *91:29 5.73432e-05
7 *383:B *92:18 3.94171e-05
8 *397:D *383:B 0.000157752
9 *398:D *383:B 5.79555e-05
*RES
1 *381:X *383:B 15.855 
*END

*D_NET *54 0.00078293
*CONN
*I *343:A1 I *D sky130_fd_sc_hd__a211o_1
*I *318:Y O *D sky130_fd_sc_hd__nand2_1
*CAP
1 *343:A1 0.0001077
2 *318:Y 0.0001077
3 *343:A1 *318:A 0.000162332
4 *343:A1 *343:A2 4.5783e-05
5 *343:A1 *345:B1 6.56741e-05
6 *343:A1 *95:34 0.000131408
7 *343:A1 *95:42 0.000162332
*RES
1 *318:Y *343:A1 11.07 
*END

*D_NET *55 0.00285935
*CONN
*I *345:A1 I *D sky130_fd_sc_hd__o21ai_1
*I *348:B1 I *D sky130_fd_sc_hd__a21o_1
*I *319:X O *D sky130_fd_sc_hd__and3_1
*CAP
1 *345:A1 3.53605e-05
2 *348:B1 0.000300958
3 *319:X 0.000307388
4 *55:18 0.000643706
5 *345:A1 *345:A2 6.38291e-05
6 *345:A1 *113:21 3.76596e-05
7 *348:B1 *345:A2 8.53113e-06
8 *348:B1 *348:A1 5.30673e-05
9 *348:B1 *348:A2 8.53113e-06
10 *348:B1 *113:21 9.1566e-05
11 *348:B1 *128:14 0
12 *348:B1 *128:40 5.71917e-05
13 *55:18 *319:A 0.000120955
14 *55:18 *319:C 0.000223727
15 *55:18 *320:D 8.65961e-05
16 *55:18 *344:A1 6.97202e-05
17 *55:18 *344:A2 4.16353e-05
18 *55:18 *345:A2 4.66826e-05
19 *55:18 *96:23 0.000334268
20 startup_timed_out *345:A1 0.000143266
21 startup_timed_out *348:B1 0.00018471
22 *421:A *348:B1 0
*RES
1 *319:X *55:18 11.715 
2 *55:18 *348:B1 9.345 
3 *55:18 *345:A1 5.235 
*END

*D_NET *56 0.00238974
*CONN
*I *322:B I *D sky130_fd_sc_hd__and2_1
*I *321:A I *D sky130_fd_sc_hd__inv_2
*I *339:B1 I *D sky130_fd_sc_hd__o311a_1
*I *320:X O *D sky130_fd_sc_hd__and4_1
*CAP
1 *322:B 6.79405e-05
2 *321:A 0.000138273
3 *339:B1 8.54078e-05
4 *320:X 6.97944e-05
5 *56:14 0.000595138
6 *56:12 0.000509193
7 *321:A *350:B1 0.000137563
8 *321:A *351:A2 0
9 *321:A *61:14 7.19352e-05
10 *322:B *322:A 1.16578e-05
11 *339:B1 *326:B 2.75145e-05
12 *339:B1 *339:A3 3.26889e-05
13 *339:B1 *339:C1 3.04064e-05
14 *339:B1 *61:14 9.27255e-06
15 *56:12 *320:C 2.87867e-05
16 *56:12 *117:43 0
17 *56:14 *322:A 6.65725e-05
18 *56:14 *339:C1 1.33285e-05
19 *56:14 *350:B1 0.000316421
20 *56:14 *99:23 0.000177849
*RES
1 *320:X *56:12 6.83 
2 *56:12 *56:14 7.005 
3 *56:14 *339:B1 3.1 
4 *56:14 *321:A 8.36 
5 *56:12 *322:B 2.755 
*END

*D_NET *57 0.00240385
*CONN
*I *349:A2 I *D sky130_fd_sc_hd__o21a_1
*I *350:B1 I *D sky130_fd_sc_hd__o21a_1
*I *321:Y O *D sky130_fd_sc_hd__inv_2
*CAP
1 *349:A2 0.000579528
2 *350:B1 0.00010685
3 *321:Y 0
4 *57:4 0.000686379
5 *349:A2 *349:A1 0.000106197
6 *349:A2 *351:A1 6.47326e-05
7 *349:A2 *351:A2 5.062e-06
8 *349:A2 *351:B1_N 3.00381e-05
9 *349:A2 *67:20 7.57813e-06
10 *350:B1 *339:C1 0.000198945
11 *350:B1 *99:23 0.00012657
12 *350:B1 *128:58 3.79874e-05
13 *321:A *350:B1 0.000137563
14 *56:14 *350:B1 0.000316421
*RES
1 *321:Y *57:4 1.6 
2 *57:4 *350:B1 10.1 
3 *57:4 *349:A2 8.605 
*END

*D_NET *58 0.00657741
*CONN
*I *363:A I *D sky130_fd_sc_hd__nand2_1
*I *366:A1 I *D sky130_fd_sc_hd__a21oi_1
*I *368:C I *D sky130_fd_sc_hd__and3_1
*I *365:B I *D sky130_fd_sc_hd__and3_1
*I *370:A2 I *D sky130_fd_sc_hd__a31o_1
*I *323:X O *D sky130_fd_sc_hd__and4_1
*CAP
1 *363:A 0.000544549
2 *366:A1 2.65816e-05
3 *368:C 0.000182292
4 *365:B 0.000197424
5 *370:A2 8.6271e-05
6 *323:X 0
7 *58:46 0.000407872
8 *58:29 0.000533334
9 *58:14 0.000595489
10 *58:6 0.000916856
11 *363:A *360:B1 3.45117e-05
12 *363:A *363:B 0.000122037
13 *363:A *81:25 8.74345e-06
14 *363:A *81:40 6.23541e-06
15 *363:A *82:25 0.00013629
16 *363:A *85:10 0
17 *363:A *85:12 0
18 *363:A *85:25 0
19 *363:A *112:38 0.000107176
20 *365:B *393:RESET_B 5.12462e-05
21 *365:B *88:23 7.01303e-05
22 *365:B *116:10 1.23673e-05
23 *366:A1 *115:60 1.91597e-05
24 *368:C *326:A 8.81365e-05
25 *368:C *59:12 7.61904e-05
26 *368:C *112:29 1.97849e-05
27 *368:C *115:16 0.000104574
28 *368:C *115:54 0.000139933
29 *370:A2 *370:A1 0
30 *370:A2 *87:6 8.13422e-05
31 *370:A2 *87:12 2.49909e-05
32 *58:14 *352:A_N 0.000164484
33 *58:14 *81:25 3.60024e-06