* NGSPICE file created from por_ana.ext - technology: sky130A

.subckt sky130_fd_sc_hd__inv_16 A VGND VNB VPB VPWR Y
X0 Y A VPWR VPB sky130_fd_pr__pfet_01v8_hvt ad=0.135 pd=1.27 as=0.135 ps=1.27 w=1 l=0.15
X1 VPWR A Y VPB sky130_fd_pr__pfet_01v8_hvt ad=0.26 pd=2.52 as=0.135 ps=1.27 w=1 l=0.15
X2 VGND A Y VNB sky130_fd_pr__nfet_01v8 ad=0.08775 pd=0.92 as=0.08775 ps=0.92 w=0.65 l=0.15
X3 Y A VPWR VPB sky130_fd_pr__pfet_01v8_hvt ad=0.135 pd=1.27 as=0.135 ps=1.27 w=1 l=0.15
X4 VGND A Y VNB sky130_fd_pr__nfet_01v8 ad=0.08775 pd=0.92 as=0.08775 ps=0.92 w=0.65 l=0.15
X5 VGND A Y VNB sky130_fd_pr__nfet_01v8 ad=0.08775 pd=0.92 as=0.08775 ps=0.92 w=0.65 l=0.15
X6 Y A VPWR VPB sky130_fd_pr__pfet_01v8_hvt ad=0.135 pd=1.27 as=0.26 ps=2.52 w=1 l=0.15
X7 VGND A Y VNB sky130_fd_pr__nfet_01v8 ad=0.169 pd=1.82 as=0.08775 ps=0.92 w=0.65 l=0.15
X8 VPWR A Y VPB sky130_fd_pr__pfet_01v8_hvt ad=0.135 pd=1.27 as=0.135 ps=1.27 w=1 l=0.15
X9 Y A VGND VNB sky130_fd_pr__nfet_01v8 ad=0.08775 pd=0.92 as=0.08775 ps=0.92 w=0.65 l=0.15
X10 VPWR A Y VPB sky130_fd_pr__pfet_01v8_hvt ad=0.135 pd=1.27 as=0.135 ps=1.27 w=1 l=0.15
X11 Y A VGND VNB sky130_fd_pr__nfet_01v8 ad=0.08775 pd=0.92 as=0.08775 ps=0.92 w=0.65 l=0.15
X12 Y A VPWR VPB sky130_fd_pr__pfet_01v8_hvt ad=0.135 pd=1.27 as=0.135 ps=1.27 w=1 l=0.15
X13 VPWR A Y VPB sky130_fd_pr__pfet_01v8_hvt ad=0.135 pd=1.27 as=0.135 ps=1.27 w=1 l=0.15
X14 Y A VPWR VPB sky130_fd_pr__pfet_01v8_hvt ad=0.135 pd=1.27 as=0.135 ps=1.27 w=1 l=0.15
X15 VGND A Y VNB sky130_fd_pr__nfet_01v8 ad=0.08775 pd=0.92 as=0.08775 ps=0.92 w=0.65 l=0.15
X16 Y A VGND VNB sky130_fd_pr__nfet_01v8 ad=0.08775 pd=0.92 as=0.169 ps=1.82 w=0.65 l=0.15
X17 VGND A Y VNB sky130_fd_pr__nfet_01v8 ad=0.08775 pd=0.92 as=0.08775 ps=0.92 w=0.65 l=0.15
X18 VGND A Y VNB sky130_fd_pr__nfet_01v8 ad=0.08775 pd=0.92 as=0.08775 ps=0.92 w=0.65 l=0.15
X19 Y A VPWR VPB sky130_fd_pr__pfet_01v8_hvt ad=0.135 pd=1.27 as=0.135 ps=1.27 w=1 l=0.15
X20 VGND A Y VNB sky130_fd_pr__nfet_01v8 ad=0.08775 pd=0.92 as=0.08775 ps=0.92 w=0.65 l=0.15
X21 Y A VPWR VPB sky130_fd_pr__pfet_01v8_hvt ad=0.135 pd=1.27 as=0.135 ps=1.27 w=1 l=0.15
X22 VPWR A Y VPB sky130_fd_pr__pfet_01v8_hvt ad=0.135 pd=1.27 as=0.135 ps=1.27 w=1 l=0.15
X23 VPWR A Y VPB sky130_fd_pr__pfet_01v8_hvt ad=0.135 pd=1.27 as=0.135 ps=1.27 w=1 l=0.15
X24 VPWR A Y VPB sky130_fd_pr__pfet_01v8_hvt ad=0.135 pd=1.27 as=0.135 ps=1.27 w=1 l=0.15
X25 Y A VGND VNB sky130_fd_pr__nfet_01v8 ad=0.08775 pd=0.92 as=0.08775 ps=0.92 w=0.65 l=0.15
X26 Y A VPWR VPB sky130_fd_pr__pfet_01v8_hvt ad=0.135 pd=1.27 as=0.135 ps=1.27 w=1 l=0.15
X27 Y A VGND VNB sky130_fd_pr__nfet_01v8 ad=0.08775 pd=0.92 as=0.08775 ps=0.92 w=0.65 l=0.15
X28 Y A VGND VNB sky130_fd_pr__nfet_01v8 ad=0.08775 pd=0.92 as=0.08775 ps=0.92 w=0.65 l=0.15
X29 Y A VGND VNB sky130_fd_pr__nfet_01v8 ad=0.08775 pd=0.92 as=0.08775 ps=0.92 w=0.65 l=0.15
X30 VPWR A Y VPB sky130_fd_pr__pfet_01v8_hvt ad=0.135 pd=1.27 as=0.135 ps=1.27 w=1 l=0.15
X31 Y A VGND VNB sky130_fd_pr__nfet_01v8 ad=0.08775 pd=0.92 as=0.08775 ps=0.92 w=0.65 l=0.15
C0 Y A 1.4347f
C1 VGND Y 1.06261f
C2 VPB VPWR 0.159316f
C3 A VPB 0.525745f
C4 A VPWR 0.280261f
C5 VGND VPWR 0.160762f
C6 Y VPWR 1.46621f
C7 VGND A 0.265874f
C8 VGND VNB 0.864536f
C9 VPWR VNB 0.737072f
C10 A VNB 1.54575f
C11 VPB VNB 1.49072f
.ends

.subckt sky130_fd_sc_hvl__lsbufhv2lv_1 A LVPWR VGND VNB VPB VPWR X
X0 a_30_1337# A VPWR VPB sky130_fd_pr__pfet_g5v0d10v5 ad=0.1113 pd=1.37 as=0.1197 ps=1.41 w=0.42 l=0.5
X1 VGND a_30_1337# a_30_207# VNB sky130_fd_pr__nfet_g5v0d10v5 ad=0.178875 pd=1.26 as=0.1197 ps=1.41 w=0.42 l=0.5
X2 VGND a_30_207# a_389_141# VNB sky130_fd_pr__nfet_g5v0d10v5 ad=0.19875 pd=2.03 as=0.105 ps=1.03 w=0.75 l=0.5
X3 VGND a_30_207# a_389_141# VNB sky130_fd_pr__nfet_g5v0d10v5 ad=0.19875 pd=2.03 as=0.19875 ps=2.03 w=0.75 l=0.5
X4 a_389_1337# a_30_1337# VGND VNB sky130_fd_pr__nfet_g5v0d10v5 ad=0.19875 pd=2.03 as=0.105 ps=1.03 w=0.75 l=0.5
X5 VGND a_30_207# a_389_141# VNB sky130_fd_pr__nfet_g5v0d10v5 ad=0.19875 pd=2.03 as=0.19875 ps=2.03 w=0.75 l=0.5
X6 VGND A a_30_1337# VNB sky130_fd_pr__nfet_g5v0d10v5 ad=0.178875 pd=1.26 as=0.1197 ps=1.41 w=0.42 l=0.5
X7 VGND a_30_1337# a_389_1337# VNB sky130_fd_pr__nfet_g5v0d10v5 ad=0.19875 pd=2.03 as=0.19875 ps=2.03 w=0.75 l=0.5
X8 a_389_141# a_30_207# VGND VNB sky130_fd_pr__nfet_g5v0d10v5 ad=0.105 pd=1.03 as=0.178875 ps=1.26 w=0.75 l=0.5
X9 VGND a_30_1337# a_389_1337# VNB sky130_fd_pr__nfet_g5v0d10v5 ad=0.105 pd=1.03 as=0.105 ps=1.03 w=0.75 l=0.5
X10 LVPWR a_389_141# X LVPWR sky130_fd_pr__pfet_01v8_hvt ad=0.1568 pd=1.4 as=0.2968 ps=2.77 w=1.12 l=0.15
X11 VGND a_389_141# X VNB sky130_fd_pr__nfet_01v8 ad=0.1961 pd=2.01 as=0.1961 ps=2.01 w=0.74 l=0.15
X12 a_389_1337# a_30_1337# VGND VNB sky130_fd_pr__nfet_g5v0d10v5 ad=0.105 pd=1.03 as=0.178875 ps=1.26 w=0.75 l=0.5
X13 LVPWR a_389_1337# a_389_141# LVPWR sky130_fd_pr__pfet_01v8_hvt ad=0.2968 pd=2.77 as=0.2968 ps=2.77 w=1.12 l=0.15
X14 a_30_207# a_30_1337# VPWR VPB sky130_fd_pr__pfet_g5v0d10v5 ad=0.1113 pd=1.37 as=0.1197 ps=1.41 w=0.42 l=0.5
X15 a_389_1337# a_389_141# LVPWR LVPWR sky130_fd_pr__pfet_01v8_hvt ad=0.2968 pd=2.77 as=0.1568 ps=1.4 w=1.12 l=0.15
C0 LVPWR X 0.171836f
C1 a_389_141# a_30_1337# 0.166612f
C2 a_30_207# a_30_1337# 0.170258f
C3 VPWR a_389_1337# 0.113209f
C4 VGND X 0.22925f
C5 VPWR VPB 2.11464f
C6 LVPWR VPWR 1.07584f
C7 a_389_141# X 0.116307f
C8 VGND VPWR 0.179222f
C9 LVPWR a_389_1337# 0.443515f
C10 A a_30_1337# 0.187128f
C11 VGND a_389_1337# 0.349538f
C12 VPWR a_389_141# 0.164733f
C13 LVPWR VGND 0.248568f
C14 VPWR a_30_1337# 0.215762f
C15 a_389_141# a_389_1337# 0.136815f
C16 a_30_1337# a_389_1337# 0.249533f
C17 LVPWR a_389_141# 0.469283f
C18 a_30_1337# VPB 0.29963f
C19 VGND a_389_141# 0.378288f
C20 a_30_207# VGND 0.254325f
C21 VGND a_30_1337# 0.296817f
C22 A VPB 0.193945f
C23 a_30_207# a_389_141# 0.249269f
C24 VPWR VNB 0.294478f
C25 VGND VNB 2.76278f
C26 A VNB 0.284924f
C27 LVPWR VNB 0.712212f
C28 VPB VNB 1.87844f
C29 a_30_207# VNB 0.665049f
C30 a_389_141# VNB 0.635783f
C31 a_389_1337# VNB 0.510776f
C32 a_30_1337# VNB 1.03613f
.ends

.subckt sky130_fd_pr__nfet_g5v0d10v5_K8JYEQ a_n3678_n531# a_296_n557# a_950_n531#
+ a_n2374_n557# a_3976_n531# a_2908_n531# a_n1306_n557# a_n3442_n557# a_n2076_n531#
+ a_n3144_n531# a_2610_n557# a_1542_n557# a_n950_n557# a_n1008_n531# a_n4212_n531#
+ a_3442_n531# a_2374_n531# a_1306_n531# a_n652_n531# a_1898_n557# a_n3798_n557# a_2966_n557#
+ a_772_n531# a_118_n557# a_3798_n531# a_n1720_n531# a_n1128_n557# a_n2196_n557# a_n3264_n557#
+ a_1364_n557# a_3500_n557# a_2432_n557# a_n772_n557# a_2196_n531# a_n474_n531# a_n4034_n531#
+ a_3264_n531# a_1128_n531# a_830_n557# a_3856_n557# a_2788_n557# a_n1840_n557# a_594_n531#
+ a_n1542_n531# a_n2610_n531# a_n3086_n557# a_2254_n557# a_1186_n557# a_n594_n557#
+ a_n2018_n557# a_n4154_n557# a_1840_n531# a_3322_n557# a_3086_n531# a_n296_n531#
+ a_n1898_n531# a_n2966_n531# a_4154_n531# a_2018_n531# a_60_n531# a_652_n557# a_3678_n557#
+ a_n1662_n557# a_n2730_n557# a_n1364_n531# a_n60_n557# a_416_n531# a_n2432_n531#
+ a_1662_n531# a_n3500_n531# a_3144_n557# a_2076_n557# a_1008_n557# a_2730_n531# a_n416_n557#
+ a_n2788_n531# a_n3856_n531# a_474_n557# a_n118_n531# a_n1484_n557# a_n2552_n557#
+ a_n3620_n557# a_238_n531# a_n1186_n531# a_n2254_n531# a_1720_n557# a_n3322_n531#
+ a_n4346_n691# a_2552_n531# a_1484_n531# a_n830_n531# a_4034_n557# a_n3976_n557#
+ a_3620_n531# a_n238_n557# a_n2908_n557#
X0 a_n3856_n531# a_n3976_n557# a_n4034_n531# a_n4346_n691# sky130_fd_pr__nfet_g5v0d10v5 ad=0.725 pd=5.29 as=0.725 ps=5.29 w=5 l=0.6
X1 a_2196_n531# a_2076_n557# a_2018_n531# a_n4346_n691# sky130_fd_pr__nfet_g5v0d10v5 ad=0.725 pd=5.29 as=0.725 ps=5.29 w=5 l=0.6
X2 a_n2610_n531# a_n2730_n557# a_n2788_n531# a_n4346_n691# sky130_fd_pr__nfet_g5v0d10v5 ad=0.725 pd=5.29 as=0.725 ps=5.29 w=5 l=0.6
X3 a_n2254_n531# a_n2374_n557# a_n2432_n531# a_n4346_n691# sky130_fd_pr__nfet_g5v0d10v5 ad=0.725 pd=5.29 as=0.725 ps=5.29 w=5 l=0.6
X4 a_n652_n531# a_n772_n557# a_n830_n531# a_n4346_n691# sky130_fd_pr__nfet_g5v0d10v5 ad=0.725 pd=5.29 as=0.725 ps=5.29 w=5 l=0.6
X5 a_2018_n531# a_1898_n557# a_1840_n531# a_n4346_n691# sky130_fd_pr__nfet_g5v0d10v5 ad=0.725 pd=5.29 as=0.725 ps=5.29 w=5 l=0.6
X6 a_n1008_n531# a_n1128_n557# a_n1186_n531# a_n4346_n691# sky130_fd_pr__nfet_g5v0d10v5 ad=0.725 pd=5.29 as=0.725 ps=5.29 w=5 l=0.6
X7 a_594_n531# a_474_n557# a_416_n531# a_n4346_n691# sky130_fd_pr__nfet_g5v0d10v5 ad=0.725 pd=5.29 as=0.725 ps=5.29 w=5 l=0.6
X8 a_3264_n531# a_3144_n557# a_3086_n531# a_n4346_n691# sky130_fd_pr__nfet_g5v0d10v5 ad=0.725 pd=5.29 as=0.725 ps=5.29 w=5 l=0.6
X9 a_n3322_n531# a_n3442_n557# a_n3500_n531# a_n4346_n691# sky130_fd_pr__nfet_g5v0d10v5 ad=0.725 pd=5.29 as=0.725 ps=5.29 w=5 l=0.6
X10 a_60_n531# a_n60_n557# a_n118_n531# a_n4346_n691# sky130_fd_pr__nfet_g5v0d10v5 ad=0.725 pd=5.29 as=0.725 ps=5.29 w=5 l=0.6
X11 a_3086_n531# a_2966_n557# a_2908_n531# a_n4346_n691# sky130_fd_pr__nfet_g5v0d10v5 ad=0.725 pd=5.29 as=0.725 ps=5.29 w=5 l=0.6
X12 a_1484_n531# a_1364_n557# a_1306_n531# a_n4346_n691# sky130_fd_pr__nfet_g5v0d10v5 ad=0.725 pd=5.29 as=0.725 ps=5.29 w=5 l=0.6
X13 a_n1542_n531# a_n1662_n557# a_n1720_n531# a_n4346_n691# sky130_fd_pr__nfet_g5v0d10v5 ad=0.725 pd=5.29 as=0.725 ps=5.29 w=5 l=0.6
X14 a_2552_n531# a_2432_n557# a_2374_n531# a_n4346_n691# sky130_fd_pr__nfet_g5v0d10v5 ad=0.725 pd=5.29 as=0.725 ps=5.29 w=5 l=0.6
X15 a_n3678_n531# a_n3798_n557# a_n3856_n531# a_n4346_n691# sky130_fd_pr__nfet_g5v0d10v5 ad=0.725 pd=5.29 as=0.725 ps=5.29 w=5 l=0.6
X16 a_950_n531# a_830_n557# a_772_n531# a_n4346_n691# sky130_fd_pr__nfet_g5v0d10v5 ad=0.725 pd=5.29 as=0.725 ps=5.29 w=5 l=0.6
X17 a_3620_n531# a_3500_n557# a_3442_n531# a_n4346_n691# sky130_fd_pr__nfet_g5v0d10v5 ad=0.725 pd=5.29 as=0.725 ps=5.29 w=5 l=0.6
X18 a_n2076_n531# a_n2196_n557# a_n2254_n531# a_n4346_n691# sky130_fd_pr__nfet_g5v0d10v5 ad=0.725 pd=5.29 as=0.725 ps=5.29 w=5 l=0.6
X19 a_n830_n531# a_n950_n557# a_n1008_n531# a_n4346_n691# sky130_fd_pr__nfet_g5v0d10v5 ad=0.725 pd=5.29 as=0.725 ps=5.29 w=5 l=0.6
X20 a_n474_n531# a_n594_n557# a_n652_n531# a_n4346_n691# sky130_fd_pr__nfet_g5v0d10v5 ad=0.725 pd=5.29 as=0.725 ps=5.29 w=5 l=0.6
X21 a_1840_n531# a_1720_n557# a_1662_n531# a_n4346_n691# sky130_fd_pr__nfet_g5v0d10v5 ad=0.725 pd=5.29 as=0.725 ps=5.29 w=5 l=0.6
X22 a_n3500_n531# a_n3620_n557# a_n3678_n531# a_n4346_n691# sky130_fd_pr__nfet_g5v0d10v5 ad=0.725 pd=5.29 as=0.725 ps=5.29 w=5 l=0.6
X23 a_416_n531# a_296_n557# a_238_n531# a_n4346_n691# sky130_fd_pr__nfet_g5v0d10v5 ad=0.725 pd=5.29 as=0.725 ps=5.29 w=5 l=0.6
X24 a_n3144_n531# a_n3264_n557# a_n3322_n531# a_n4346_n691# sky130_fd_pr__nfet_g5v0d10v5 ad=0.725 pd=5.29 as=0.725 ps=5.29 w=5 l=0.6
X25 a_2908_n531# a_2788_n557# a_2730_n531# a_n4346_n691# sky130_fd_pr__nfet_g5v0d10v5 ad=0.725 pd=5.29 as=0.725 ps=5.29 w=5 l=0.6
X26 a_n1898_n531# a_n2018_n557# a_n2076_n531# a_n4346_n691# sky130_fd_pr__nfet_g5v0d10v5 ad=0.725 pd=5.29 as=0.725 ps=5.29 w=5 l=0.6
X27 a_4154_n531# a_4034_n557# a_3976_n531# a_n4346_n691# sky130_fd_pr__nfet_g5v0d10v5 ad=1.45 pd=10.58 as=0.725 ps=5.29 w=5 l=0.6
X28 a_n296_n531# a_n416_n557# a_n474_n531# a_n4346_n691# sky130_fd_pr__nfet_g5v0d10v5 ad=0.725 pd=5.29 as=0.725 ps=5.29 w=5 l=0.6
X29 a_1306_n531# a_1186_n557# a_1128_n531# a_n4346_n691# sky130_fd_pr__nfet_g5v0d10v5 ad=0.725 pd=5.29 as=0.725 ps=5.29 w=5 l=0.6
X30 a_3976_n531# a_3856_n557# a_3798_n531# a_n4346_n691# sky130_fd_pr__nfet_g5v0d10v5 ad=0.725 pd=5.29 as=0.725 ps=5.29 w=5 l=0.6
X31 a_n1720_n531# a_n1840_n557# a_n1898_n531# a_n4346_n691# sky130_fd_pr__nfet_g5v0d10v5 ad=0.725 pd=5.29 as=0.725 ps=5.29 w=5 l=0.6
X32 a_n1364_n531# a_n1484_n557# a_n1542_n531# a_n4346_n691# sky130_fd_pr__nfet_g5v0d10v5 ad=0.725 pd=5.29 as=0.725 ps=5.29 w=5 l=0.6
X33 a_238_n531# a_118_n557# a_60_n531# a_n4346_n691# sky130_fd_pr__nfet_g5v0d10v5 ad=0.725 pd=5.29 as=0.725 ps=5.29 w=5 l=0.6
X34 a_2374_n531# a_2254_n557# a_2196_n531# a_n4346_n691# sky130_fd_pr__nfet_g5v0d10v5 ad=0.725 pd=5.29 as=0.725 ps=5.29 w=5 l=0.6
X35 a_n2788_n531# a_n2908_n557# a_n2966_n531# a_n4346_n691# sky130_fd_pr__nfet_g5v0d10v5 ad=0.725 pd=5.29 as=0.725 ps=5.29 w=5 l=0.6
X36 a_n2432_n531# a_n2552_n557# a_n2610_n531# a_n4346_n691# sky130_fd_pr__nfet_g5v0d10v5 ad=0.725 pd=5.29 as=0.725 ps=5.29 w=5 l=0.6
X37 a_1128_n531# a_1008_n557# a_950_n531# a_n4346_n691# sky130_fd_pr__nfet_g5v0d10v5 ad=0.725 pd=5.29 as=0.725 ps=5.29 w=5 l=0.6
X38 a_n1186_n531# a_n1306_n557# a_n1364_n531# a_n4346_n691# sky130_fd_pr__nfet_g5v0d10v5 ad=0.725 pd=5.29 as=0.725 ps=5.29 w=5 l=0.6
X39 a_772_n531# a_652_n557# a_594_n531# a_n4346_n691# sky130_fd_pr__nfet_g5v0d10v5 ad=0.725 pd=5.29 as=0.725 ps=5.29 w=5 l=0.6
X40 a_3442_n531# a_3322_n557# a_3264_n531# a_n4346_n691# sky130_fd_pr__nfet_g5v0d10v5 ad=0.725 pd=5.29 as=0.725 ps=5.29 w=5 l=0.6
X41 a_1662_n531# a_1542_n557# a_1484_n531# a_n4346_n691# sky130_fd_pr__nfet_g5v0d10v5 ad=0.725 pd=5.29 as=0.725 ps=5.29 w=5 l=0.6
X42 a_n2966_n531# a_n3086_n557# a_n3144_n531# a_n4346_n691# sky130_fd_pr__nfet_g5v0d10v5 ad=0.725 pd=5.29 as=0.725 ps=5.29 w=5 l=0.6
X43 a_2730_n531# a_2610_n557# a_2552_n531# a_n4346_n691# sky130_fd_pr__nfet_g5v0d10v5 ad=0.725 pd=5.29 as=0.725 ps=5.29 w=5 l=0.6
X44 a_n4034_n531# a_n4154_n557# a_n4212_n531# a_n4346_n691# sky130_fd_pr__nfet_g5v0d10v5 ad=0.725 pd=5.29 as=1.45 ps=10.58 w=5 l=0.6
X45 a_n118_n531# a_n238_n557# a_n296_n531# a_n4346_n691# sky130_fd_pr__nfet_g5v0d10v5 ad=0.725 pd=5.29 as=0.725 ps=5.29 w=5 l=0.6
X46 a_3798_n531# a_3678_n557# a_3620_n531# a_n4346_n691# sky130_fd_pr__nfet_g5v0d10v5 ad=0.725 pd=5.29 as=0.725 ps=5.29 w=5 l=0.6
C0 a_n2788_n531# a_n2610_n531# 0.396241f
C1 a_1306_n531# a_1128_n531# 0.396241f
C2 a_1484_n531# a_1662_n531# 0.396241f
C3 a_n1898_n531# a_n2076_n531# 0.396241f
C4 a_3264_n531# a_3442_n531# 0.396241f
C5 a_3442_n531# a_3620_n531# 0.396241f
C6 a_n3678_n531# a_n3856_n531# 0.396241f
C7 a_2196_n531# a_2374_n531# 0.396241f
C8 a_n1186_n531# a_n1008_n531# 0.396241f
C9 a_3620_n531# a_3798_n531# 0.396241f
C10 a_238_n531# a_416_n531# 0.396241f
C11 a_1662_n531# a_1840_n531# 0.396241f
C12 a_416_n531# a_594_n531# 0.396241f
C13 a_2018_n531# a_2196_n531# 0.396241f
C14 a_2374_n531# a_2552_n531# 0.396241f
C15 a_n1008_n531# a_n830_n531# 0.396241f
C16 a_3798_n531# a_3976_n531# 0.396241f
C17 a_n4212_n531# a_n4034_n531# 0.396241f
C18 a_1840_n531# a_2018_n531# 0.396241f
C19 a_3086_n531# a_3264_n531# 0.396241f
C20 a_2552_n531# a_2730_n531# 0.396241f
C21 a_n830_n531# a_n652_n531# 0.396241f
C22 a_3976_n531# a_4154_n531# 0.396241f
C23 a_60_n531# a_238_n531# 0.396241f
C24 a_n3500_n531# a_n3322_n531# 0.396241f
C25 a_n4034_n531# a_n3856_n531# 0.396241f
C26 a_2730_n531# a_2908_n531# 0.396241f
C27 a_n474_n531# a_n652_n531# 0.396241f
C28 a_n2610_n531# a_n2432_n531# 0.396241f
C29 a_n1898_n531# a_n1720_n531# 0.396241f
C30 a_594_n531# a_772_n531# 0.396241f
C31 a_n3144_n531# a_n2966_n531# 0.396241f
C32 a_n2432_n531# a_n2254_n531# 0.396241f
C33 a_n1720_n531# a_n1542_n531# 0.396241f
C34 a_n474_n531# a_n296_n531# 0.396241f
C35 a_n3678_n531# a_n3500_n531# 0.396241f
C36 a_n2966_n531# a_n2788_n531# 0.396241f
C37 a_n2254_n531# a_n2076_n531# 0.396241f
C38 a_n1542_n531# a_n1364_n531# 0.396241f
C39 a_n296_n531# a_n118_n531# 0.396241f
C40 a_772_n531# a_950_n531# 0.396241f
C41 a_n118_n531# a_60_n531# 0.396241f
C42 a_1306_n531# a_1484_n531# 0.396241f
C43 a_950_n531# a_1128_n531# 0.396241f
C44 a_n1186_n531# a_n1364_n531# 0.396241f
C45 a_n3144_n531# a_n3322_n531# 0.396241f
C46 a_2908_n531# a_3086_n531# 0.396241f
C47 a_4154_n531# a_n4346_n691# 0.533824f
C48 a_3976_n531# a_n4346_n691# 0.125488f
C49 a_3798_n531# a_n4346_n691# 0.125488f
C50 a_3620_n531# a_n4346_n691# 0.125488f
C51 a_3442_n531# a_n4346_n691# 0.125488f
C52 a_3264_n531# a_n4346_n691# 0.125488f
C53 a_3086_n531# a_n4346_n691# 0.125488f
C54 a_2908_n531# a_n4346_n691# 0.125488f
C55 a_2730_n531# a_n4346_n691# 0.125488f
C56 a_2552_n531# a_n4346_n691# 0.125488f
C57 a_2374_n531# a_n4346_n691# 0.125488f
C58 a_2196_n531# a_n4346_n691# 0.125488f
C59 a_2018_n531# a_n4346_n691# 0.125488f
C60 a_1840_n531# a_n4346_n691# 0.125488f
C61 a_1662_n531# a_n4346_n691# 0.125488f
C62 a_1484_n531# a_n4346_n691# 0.125488f
C63 a_1306_n531# a_n4346_n691# 0.125488f
C64 a_1128_n531# a_n4346_n691# 0.125488f
C65 a_950_n531# a_n4346_n691# 0.125488f
C66 a_772_n531# a_n4346_n691# 0.125488f
C67 a_594_n531# a_n4346_n691# 0.125488f
C68 a_416_n531# a_n4346_n691# 0.125488f
C69 a_238_n531# a_n4346_n691# 0.125488f
C70 a_60_n531# a_n4346_n691# 0.125488f
C71 a_n118_n531# a_n4346_n691# 0.125488f
C72 a_n296_n531# a_n4346_n691# 0.125488f
C73 a_n474_n531# a_n4346_n691# 0.125488f
C74 a_n652_n531# a_n4346_n691# 0.125488f
C75 a_n830_n531# a_n4346_n691# 0.125488f
C76 a_n1008_n531# a_n4346_n691# 0.125488f
C77 a_n1186_n531# a_n4346_n691# 0.125488f
C78 a_n1364_n531# a_n4346_n691# 0.125488f
C79 a_n1542_n531# a_n4346_n691# 0.125488f
C80 a_n1720_n531# a_n4346_n691# 0.125488f
C81 a_n1898_n531# a_n4346_n691# 0.125488f
C82 a_n2076_n531# a_n4346_n691# 0.125488f
C83 a_n2254_n531# a_n4346_n691# 0.125488f
C84 a_n2432_n531# a_n4346_n691# 0.125488f
C85 a_n2610_n531# a_n4346_n691# 0.125488f
C86 a_n2788_n531# a_n4346_n691# 0.125488f
C87 a_n2966_n531# a_n4346_n691# 0.125488f
C88 a_n3144_n531# a_n4346_n691# 0.125488f
C89 a_n3322_n531# a_n4346_n691# 0.125488f
C90 a_n3500_n531# a_n4346_n691# 0.125488f
C91 a_n3678_n531# a_n4346_n691# 0.125488f
C92 a_n3856_n531# a_n4346_n691# 0.125488f
C93 a_n4034_n531# a_n4346_n691# 0.125488f
C94 a_n4212_n531# a_n4346_n691# 0.533824f
C95 a_4034_n557# a_n4346_n691# 0.307672f
C96 a_3856_n557# a_n4346_n691# 0.27141f
C97 a_3678_n557# a_n4346_n691# 0.27141f
C98 a_3500_n557# a_n4346_n691# 0.27141f
C99 a_3322_n557# a_n4346_n691# 0.27141f
C100 a_3144_n557# a_n4346_n691# 0.27141f
C101 a_2966_n557# a_n4346_n691# 0.27141f
C102 a_2788_n557# a_n4346_n691# 0.27141f
C103 a_2610_n557# a_n4346_n691# 0.27141f
C104 a_2432_n557# a_n4346_n691# 0.27141f
C105 a_2254_n557# a_n4346_n691# 0.27141f
C106 a_2076_n557# a_n4346_n691# 0.27141f
C107 a_1898_n557# a_n4346_n691# 0.27141f
C108 a_1720_n557# a_n4346_n691# 0.27141f
C109 a_1542_n557# a_n4346_n691# 0.27141f
C110 a_1364_n557# a_n4346_n691# 0.27141f
C111 a_1186_n557# a_n4346_n691# 0.27141f
C112 a_1008_n557# a_n4346_n691# 0.27141f
C113 a_830_n557# a_n4346_n691# 0.27141f
C114 a_652_n557# a_n4346_n691# 0.27141f
C115 a_474_n557# a_n4346_n691# 0.27141f
C116 a_296_n557# a_n4346_n691# 0.27141f
C117 a_118_n557# a_n4346_n691# 0.27141f
C118 a_n60_n557# a_n4346_n691# 0.27141f
C119 a_n238_n557# a_n4346_n691# 0.27141f
C120 a_n416_n557# a_n4346_n691# 0.27141f
C121 a_n594_n557# a_n4346_n691# 0.27141f
C122 a_n772_n557# a_n4346_n691# 0.27141f
C123 a_n950_n557# a_n4346_n691# 0.27141f
C124 a_n1128_n557# a_n4346_n691# 0.27141f
C125 a_n1306_n557# a_n4346_n691# 0.27141f
C126 a_n1484_n557# a_n4346_n691# 0.27141f
C127 a_n1662_n557# a_n4346_n691# 0.27141f
C128 a_n1840_n557# a_n4346_n691# 0.27141f
C129 a_n2018_n557# a_n4346_n691# 0.27141f
C130 a_n2196_n557# a_n4346_n691# 0.27141f
C131 a_n2374_n557# a_n4346_n691# 0.27141f
C132 a_n2552_n557# a_n4346_n691# 0.27141f
C133 a_n2730_n557# a_n4346_n691# 0.27141f
C134 a_n2908_n557# a_n4346_n691# 0.27141f
C135 a_n3086_n557# a_n4346_n691# 0.27141f
C136 a_n3264_n557# a_n4346_n691# 0.27141f
C137 a_n3442_n557# a_n4346_n691# 0.27141f
C138 a_n3620_n557# a_n4346_n691# 0.27141f
C139 a_n3798_n557# a_n4346_n691# 0.27141f
C140 a_n3976_n557# a_n4346_n691# 0.27141f
C141 a_n4154_n557# a_n4346_n691# 0.307672f
.ends

.subckt sky130_fd_pr__pfet_g5v0d10v5_4Z8MHY a_652_n562# a_n1186_n536# a_238_n536#
+ a_n1662_n562# a_3678_n562# a_n2254_n536# a_n2730_n562# a_n3322_n536# a_n60_n562#
+ a_1484_n536# a_2552_n536# a_n830_n536# a_3620_n536# w_n4412_n762# a_2076_n562# a_3144_n562#
+ a_1008_n562# a_n3678_n536# a_n416_n562# a_950_n536# a_474_n562# a_3976_n536# a_2908_n536#
+ a_n1484_n562# a_n2076_n536# a_n2552_n562# a_n3144_n536# a_n1008_n536# a_n3620_n562#
+ a_n4212_n536# a_1720_n562# a_2374_n536# a_n652_n536# a_1306_n536# a_3442_n536# a_n3976_n562#
+ a_4034_n562# a_n238_n562# a_772_n536# a_n2908_n562# a_296_n562# a_3798_n536# a_n1720_n536#
+ a_n2374_n562# a_n3442_n562# a_n1306_n562# a_n4034_n536# a_1542_n562# a_2196_n536#
+ a_n474_n536# a_2610_n562# a_n950_n562# a_1128_n536# a_3264_n536# a_n3798_n562# a_594_n536#
+ a_1898_n562# a_2966_n562# a_n1542_n536# a_n2610_n536# a_118_n562# a_n2196_n562#
+ 0 a_1840_n536# a_n3264_n562# a_n1128_n562# a_1364_n562# a_n1898_n536# a_n296_n536#
+ a_2432_n562# a_n2966_n536# a_n772_n562# a_3086_n536# a_3500_n562# a_2018_n536# a_4154_n536#
+ a_60_n536# a_830_n562# a_2788_n562# a_n1364_n536# a_416_n536# a_n1840_n562# a_3856_n562#
+ a_n2432_n536# a_n3500_n536# a_1662_n536# a_n3086_n562# a_2730_n536# a_n4154_n562#
+ a_n2018_n562# a_1186_n562# a_2254_n562# a_n2788_n536# a_n594_n562# a_3322_n562#
+ a_n3856_n536# a_n118_n536#
X0 a_2552_n536# a_2432_n562# a_2374_n536# w_n4412_n762# sky130_fd_pr__pfet_g5v0d10v5 ad=0.725 pd=5.29 as=0.725 ps=5.29 w=5 l=0.6
X1 a_950_n536# a_830_n562# a_772_n536# w_n4412_n762# sky130_fd_pr__pfet_g5v0d10v5 ad=0.725 pd=5.29 as=0.725 ps=5.29 w=5 l=0.6
X2 a_3620_n536# a_3500_n562# a_3442_n536# w_n4412_n762# sky130_fd_pr__pfet_g5v0d10v5 ad=0.725 pd=5.29 as=0.725 ps=5.29 w=5 l=0.6
X3 a_n3678_n536# a_n3798_n562# a_n3856_n536# w_n4412_n762# sky130_fd_pr__pfet_g5v0d10v5 ad=0.725 pd=5.29 as=0.725 ps=5.29 w=5 l=0.6
X4 a_n830_n536# a_n950_n562# a_n1008_n536# w_n4412_n762# sky130_fd_pr__pfet_g5v0d10v5 ad=0.725 pd=5.29 as=0.725 ps=5.29 w=5 l=0.6
X5 a_n2076_n536# a_n2196_n562# a_n2254_n536# w_n4412_n762# sky130_fd_pr__pfet_g5v0d10v5 ad=0.725 pd=5.29 as=0.725 ps=5.29 w=5 l=0.6
X6 a_n474_n536# a_n594_n562# a_n652_n536# w_n4412_n762# sky130_fd_pr__pfet_g5v0d10v5 ad=0.725 pd=5.29 as=0.725 ps=5.29 w=5 l=0.6
X7 a_1840_n536# a_1720_n562# a_1662_n536# w_n4412_n762# sky130_fd_pr__pfet_g5v0d10v5 ad=0.725 pd=5.29 as=0.725 ps=5.29 w=5 l=0.6
X8 a_416_n536# a_296_n562# a_238_n536# w_n4412_n762# sky130_fd_pr__pfet_g5v0d10v5 ad=0.725 pd=5.29 as=0.725 ps=5.29 w=5 l=0.6
X9 a_n3500_n536# a_n3620_n562# a_n3678_n536# w_n4412_n762# sky130_fd_pr__pfet_g5v0d10v5 ad=0.725 pd=5.29 as=0.725 ps=5.29 w=5 l=0.6
X10 a_n3144_n536# a_n3264_n562# a_n3322_n536# w_n4412_n762# sky130_fd_pr__pfet_g5v0d10v5 ad=0.725 pd=5.29 as=0.725 ps=5.29 w=5 l=0.6
X11 a_2908_n536# a_2788_n562# a_2730_n536# w_n4412_n762# sky130_fd_pr__pfet_g5v0d10v5 ad=0.725 pd=5.29 as=0.725 ps=5.29 w=5 l=0.6
X12 a_4154_n536# a_4034_n562# a_3976_n536# w_n4412_n762# sky130_fd_pr__pfet_g5v0d10v5 ad=1.45 pd=10.58 as=0.725 ps=5.29 w=5 l=0.6
X13 a_n1898_n536# a_n2018_n562# a_n2076_n536# w_n4412_n762# sky130_fd_pr__pfet_g5v0d10v5 ad=0.725 pd=5.29 as=0.725 ps=5.29 w=5 l=0.6
X14 a_n296_n536# a_n416_n562# a_n474_n536# w_n4412_n762# sky130_fd_pr__pfet_g5v0d10v5 ad=0.725 pd=5.29 as=0.725 ps=5.29 w=5 l=0.6
X15 a_1306_n536# a_1186_n562# a_1128_n536# w_n4412_n762# sky130_fd_pr__pfet_g5v0d10v5 ad=0.725 pd=5.29 as=0.725 ps=5.29 w=5 l=0.6
X16 a_n1720_n536# a_n1840_n562# a_n1898_n536# w_n4412_n762# sky130_fd_pr__pfet_g5v0d10v5 ad=0.725 pd=5.29 as=0.725 ps=5.29 w=5 l=0.6
X17 a_n1364_n536# a_n1484_n562# a_n1542_n536# w_n4412_n762# sky130_fd_pr__pfet_g5v0d10v5 ad=0.725 pd=5.29 as=0.725 ps=5.29 w=5 l=0.6
X18 a_238_n536# a_118_n562# a_60_n536# w_n4412_n762# sky130_fd_pr__pfet_g5v0d10v5 ad=0.725 pd=5.29 as=0.725 ps=5.29 w=5 l=0.6
X19 a_3976_n536# a_3856_n562# a_3798_n536# w_n4412_n762# sky130_fd_pr__pfet_g5v0d10v5 ad=0.725 pd=5.29 as=0.725 ps=5.29 w=5 l=0.6
X20 a_n2788_n536# a_n2908_n562# a_n2966_n536# w_n4412_n762# sky130_fd_pr__pfet_g5v0d10v5 ad=0.725 pd=5.29 as=0.725 ps=5.29 w=5 l=0.6
X21 a_2374_n536# a_2254_n562# a_2196_n536# w_n4412_n762# sky130_fd_pr__pfet_g5v0d10v5 ad=0.725 pd=5.29 as=0.725 ps=5.29 w=5 l=0.6
X22 a_n2432_n536# a_n2552_n562# a_n2610_n536# w_n4412_n762# sky130_fd_pr__pfet_g5v0d10v5 ad=0.725 pd=5.29 as=0.725 ps=5.29 w=5 l=0.6
X23 a_1128_n536# a_1008_n562# a_950_n536# w_n4412_n762# sky130_fd_pr__pfet_g5v0d10v5 ad=0.725 pd=5.29 as=0.725 ps=5.29 w=5 l=0.6
X24 a_n1186_n536# a_n1306_n562# a_n1364_n536# w_n4412_n762# sky130_fd_pr__pfet_g5v0d10v5 ad=0.725 pd=5.29 as=0.725 ps=5.29 w=5 l=0.6
X25 a_772_n536# a_652_n562# a_594_n536# w_n4412_n762# sky130_fd_pr__pfet_g5v0d10v5 ad=0.725 pd=5.29 as=0.725 ps=5.29 w=5 l=0.6
X26 a_3442_n536# a_3322_n562# a_3264_n536# w_n4412_n762# sky130_fd_pr__pfet_g5v0d10v5 ad=0.725 pd=5.29 as=0.725 ps=5.29 w=5 l=0.6
X27 a_1662_n536# a_1542_n562# a_1484_n536# w_n4412_n762# sky130_fd_pr__pfet_g5v0d10v5 ad=0.725 pd=5.29 as=0.725 ps=5.29 w=5 l=0.6
X28 a_n2966_n536# a_n3086_n562# a_n3144_n536# w_n4412_n762# sky130_fd_pr__pfet_g5v0d10v5 ad=0.725 pd=5.29 as=0.725 ps=5.29 w=5 l=0.6
X29 a_2730_n536# a_2610_n562# a_2552_n536# w_n4412_n762# sky130_fd_pr__pfet_g5v0d10v5 ad=0.725 pd=5.29 as=0.725 ps=5.29 w=5 l=0.6
X30 a_n4034_n536# a_n4154_n562# a_n4212_n536# w_n4412_n762# sky130_fd_pr__pfet_g5v0d10v5 ad=0.725 pd=5.29 as=1.45 ps=10.58 w=5 l=0.6
X31 a_n118_n536# a_n238_n562# a_n296_n536# w_n4412_n762# sky130_fd_pr__pfet_g5v0d10v5 ad=0.725 pd=5.29 as=0.725 ps=5.29 w=5 l=0.6
X32 a_3798_n536# a_3678_n562# a_3620_n536# w_n4412_n762# sky130_fd_pr__pfet_g5v0d10v5 ad=0.725 pd=5.29 as=0.725 ps=5.29 w=5 l=0.6
X33 a_n3856_n536# a_n3976_n562# a_n4034_n536# w_n4412_n762# sky130_fd_pr__pfet_g5v0d10v5 ad=0.725 pd=5.29 as=0.725 ps=5.29 w=5 l=0.6
X34 a_n2610_n536# a_n2730_n562# a_n2788_n536# w_n4412_n762# sky130_fd_pr__pfet_g5v0d10v5 ad=0.725 pd=5.29 as=0.725 ps=5.29 w=5 l=0.6
X35 a_2196_n536# a_2076_n562# a_2018_n536# w_n4412_n762# sky130_fd_pr__pfet_g5v0d10v5 ad=0.725 pd=5.29 as=0.725 ps=5.29 w=5 l=0.6
X36 a_n2254_n536# a_n2374_n562# a_n2432_n536# w_n4412_n762# sky130_fd_pr__pfet_g5v0d10v5 ad=0.725 pd=5.29 as=0.725 ps=5.29 w=5 l=0.6
X37 a_n652_n536# a_n772_n562# a_n830_n536# w_n4412_n762# sky130_fd_pr__pfet_g5v0d10v5 ad=0.725 pd=5.29 as=0.725 ps=5.29 w=5 l=0.6
X38 a_2018_n536# a_1898_n562# a_1840_n536# w_n4412_n762# sky130_fd_pr__pfet_g5v0d10v5 ad=0.725 pd=5.29 as=0.725 ps=5.29 w=5 l=0.6
X39 a_n1008_n536# a_n1128_n562# a_n1186_n536# w_n4412_n762# sky130_fd_pr__pfet_g5v0d10v5 ad=0.725 pd=5.29 as=0.725 ps=5.29 w=5 l=0.6
X40 a_594_n536# a_474_n562# a_416_n536# w_n4412_n762# sky130_fd_pr__pfet_g5v0d10v5 ad=0.725 pd=5.29 as=0.725 ps=5.29 w=5 l=0.6
X41 a_3264_n536# a_3144_n562# a_3086_n536# w_n4412_n762# sky130_fd_pr__pfet_g5v0d10v5 ad=0.725 pd=5.29 as=0.725 ps=5.29 w=5 l=0.6
X42 a_n3322_n536# a_n3442_n562# a_n3500_n536# w_n4412_n762# sky130_fd_pr__pfet_g5v0d10v5 ad=0.725 pd=5.29 as=0.725 ps=5.29 w=5 l=0.6
X43 a_60_n536# a_n60_n562# a_n118_n536# w_n4412_n762# sky130_fd_pr__pfet_g5v0d10v5 ad=0.725 pd=5.29 as=0.725 ps=5.29 w=5 l=0.6
X44 a_3086_n536# a_2966_n562# a_2908_n536# w_n4412_n762# sky130_fd_pr__pfet_g5v0d10v5 ad=0.725 pd=5.29 as=0.725 ps=5.29 w=5 l=0.6
X45 a_1484_n536# a_1364_n562# a_1306_n536# w_n4412_n762# sky130_fd_pr__pfet_g5v0d10v5 ad=0.725 pd=5.29 as=0.725 ps=5.29 w=5 l=0.6
X46 a_n1542_n536# a_n1662_n562# a_n1720_n536# w_n4412_n762# sky130_fd_pr__pfet_g5v0d10v5 ad=0.725 pd=5.29 as=0.725 ps=5.29 w=5 l=0.6
C0 a_n1186_n536# a_n1364_n536# 0.396241f
C1 a_n4212_n536# a_n4034_n536# 0.396241f
C2 a_n60_n562# w_n4412_n762# 0.154143f
C3 w_n4412_n762# a_n4154_n562# 0.178797f
C4 a_1720_n562# w_n4412_n762# 0.154143f
C5 w_n4412_n762# a_n2374_n562# 0.154143f
C6 a_n474_n536# a_n296_n536# 0.396241f
C7 a_n3678_n536# a_n3500_n536# 0.396241f
C8 a_n2018_n562# w_n4412_n762# 0.154143f
C9 a_4034_n562# w_n4412_n762# 0.178797f
C10 w_n4412_n762# a_n3798_n562# 0.154143f
C11 w_n4412_n762# a_n1484_n562# 0.154143f
C12 a_238_n536# a_60_n536# 0.396241f
C13 a_n2254_n536# a_n2432_n536# 0.396241f
C14 a_n3500_n536# a_n3322_n536# 0.396241f
C15 a_n1542_n536# a_n1364_n536# 0.396241f
C16 a_n2966_n536# a_n3144_n536# 0.396241f
C17 a_n2908_n562# w_n4412_n762# 0.154143f
C18 a_2908_n536# a_2730_n536# 0.396241f
C19 a_238_n536# a_416_n536# 0.396241f
C20 w_n4412_n762# a_n3442_n562# 0.154143f
C21 a_1364_n562# w_n4412_n762# 0.154143f
C22 a_n2432_n536# a_n2610_n536# 0.396241f
C23 a_3500_n562# w_n4412_n762# 0.154143f
C24 w_n4412_n762# a_1186_n562# 0.154143f
C25 a_n1306_n562# w_n4412_n762# 0.154143f
C26 a_n950_n562# w_n4412_n762# 0.154143f
C27 a_n2788_n536# a_n2610_n536# 0.396241f
C28 a_n4212_n536# w_n4412_n762# 0.306477f
C29 a_3620_n536# a_3798_n536# 0.396241f
C30 a_4154_n536# w_n4412_n762# 0.306477f
C31 a_n1662_n562# w_n4412_n762# 0.154143f
C32 a_n3086_n562# w_n4412_n762# 0.154143f
C33 a_2966_n562# w_n4412_n762# 0.154143f
C34 a_1662_n536# a_1840_n536# 0.396241f
C35 a_1128_n536# a_950_n536# 0.396241f
C36 a_2196_n536# a_2018_n536# 0.396241f
C37 a_772_n536# a_950_n536# 0.396241f
C38 a_1840_n536# a_2018_n536# 0.396241f
C39 a_n416_n562# w_n4412_n762# 0.154143f
C40 w_n4412_n762# a_1542_n562# 0.154143f
C41 a_3442_n536# a_3264_n536# 0.396241f
C42 a_3976_n536# a_4154_n536# 0.396241f
C43 a_1662_n536# a_1484_n536# 0.396241f
C44 a_1306_n536# a_1484_n536# 0.396241f
C45 a_2552_n536# a_2374_n536# 0.396241f
C46 a_2076_n562# w_n4412_n762# 0.154143f
C47 a_n830_n536# a_n652_n536# 0.396241f
C48 a_2610_n562# w_n4412_n762# 0.154143f
C49 a_n1008_n536# a_n1186_n536# 0.396241f
C50 a_3322_n562# w_n4412_n762# 0.154143f
C51 a_n474_n536# a_n652_n536# 0.396241f
C52 a_416_n536# a_594_n536# 0.396241f
C53 a_60_n536# a_n118_n536# 0.396241f
C54 w_n4412_n762# a_n3976_n562# 0.154143f
C55 a_n2196_n562# w_n4412_n762# 0.154143f
C56 a_n3264_n562# w_n4412_n762# 0.154143f
C57 a_474_n562# w_n4412_n762# 0.154143f
C58 a_3086_n536# a_3264_n536# 0.396241f
C59 a_118_n562# w_n4412_n762# 0.154143f
C60 w_n4412_n762# a_n3620_n562# 0.154143f
C61 a_n1720_n536# a_n1898_n536# 0.396241f
C62 a_n1008_n536# a_n830_n536# 0.396241f
C63 w_n4412_n762# a_652_n562# 0.154143f
C64 a_n594_n562# w_n4412_n762# 0.154143f
C65 a_3856_n562# w_n4412_n762# 0.154143f
C66 a_n3678_n536# a_n3856_n536# 0.396241f
C67 w_n4412_n762# a_296_n562# 0.154143f
C68 a_n3322_n536# a_n3144_n536# 0.396241f
C69 a_2432_n562# w_n4412_n762# 0.154143f
C70 a_n1128_n562# w_n4412_n762# 0.154143f
C71 a_n1840_n562# w_n4412_n762# 0.154143f
C72 a_n2730_n562# w_n4412_n762# 0.154143f
C73 w_n4412_n762# a_3678_n562# 0.154143f
C74 a_n772_n562# w_n4412_n762# 0.154143f
C75 a_n2966_n536# a_n2788_n536# 0.396241f
C76 w_n4412_n762# a_1898_n562# 0.154143f
C77 a_n1542_n536# a_n1720_n536# 0.396241f