* NGSPICE file created from por_ana_rcx.ext - technology: sky130A

.subckt por_ana vin otrip_decoded[7] otrip_decoded[6] otrip_decoded[5] otrip_decoded[4] otrip_decoded[3] otrip_decoded[2] otrip_decoded[1] otrip_decoded[0]
+vbg_1v2 avdd itest avss ibg_200n force_pdnb dvdd dvss dcomp isrc_sel pwup_filt osc_ck osc_ena porb_h por_unbuf por porb

*.subckt por_ana_rcx otrip_decoded[1] otrip_decoded[0] itest ibg_200n osc_ck porb_h
*+ por porb force_pdnb otrip_decoded[7] otrip_decoded[4] isrc_sel otrip_decoded[5]
*+ otrip_decoded[2] vin vbg_1v2 pwup_filt dcomp por_unbuf otrip_decoded[3] otrip_decoded[6]
*+ avss dvdd dvss avdd osc_ena
X0 a_n3778_7859# a_n3878_7771# dvss.t533 dvss.t532 sky130_fd_pr__nfet_g5v0d10v5 ad=0.3975 pd=3.53 as=0.21 ps=1.78 w=1.5 l=0.5
X1 a_8447_n11914# a_8069_n19314# avss.t132 sky130_fd_pr__res_xhigh_po_1p41 l=35
X2 avss.t40 comparator_1.n1 dcomp3v3 avss.t39 sky130_fd_pr__nfet_g5v0d10v5 ad=0.29 pd=2.58 as=0.145 ps=1.29 w=1 l=0.6
X3 comparator_1.vt avss.t410 comparator_1.vnn comparator_1.vt sky130_fd_pr__nfet_g5v0d10v5 ad=0.29 pd=2.58 as=0.145 ps=1.29 w=1 l=8
X4 a_n15745_n11914# a_n16123_n19314# avss.t43 sky130_fd_pr__res_xhigh_po_1p41 l=35
X5 rstring_mux_0.vtrip4.t2 rstring_mux_0.vtrip_decoded_avdd[4] comparator_0.vinn.t2 avss.t24 sky130_fd_pr__nfet_g5v0d10v5 ad=0.725 pd=5.29 as=0.725 ps=5.29 w=5 l=0.6
X6 avdd.t33 comparator_1.n1 dcomp3v3 avdd.t32 sky130_fd_pr__pfet_g5v0d10v5 ad=0.145 pd=1.29 as=0.145 ps=1.29 w=1 l=0.6
X7 dvdd.t171 sky130_fd_sc_hd__inv_4_1.Y porb.t31 dvdd.t170 sky130_fd_pr__pfet_01v8_hvt ad=0.135 pd=1.27 as=0.135 ps=1.27 w=1 l=0.15
X8 rstring_mux_0.vtrip_decoded_b_avdd[7] rstring_mux_0.vtrip_decoded_avdd[7] avss.t268 avss.t267 sky130_fd_pr__nfet_g5v0d10v5 ad=0.21375 pd=2.07 as=0.21375 ps=2.07 w=0.75 l=0.5
X9 dvdd.t325 dvdd.t323 osc_ck.t7 dvdd.t324 sky130_fd_pr__pfet_01v8 ad=0.1475 pd=1.295 as=0.15 ps=1.3 w=1 l=0.18
X10 a_5346_n3990# a_4921_n3946# dvss.t110 dvss.t109 sky130_fd_pr__nfet_g5v0d10v5 ad=0.21 pd=1.78 as=0.3975 ps=3.53 w=1.5 l=0.5
X11 rc_osc_0.n.t5 dvdd.t321 rc_osc_0.m dvdd.t322 sky130_fd_pr__pfet_01v8 ad=0.145 pd=1.29 as=0.145 ps=1.29 w=1 l=0.5
X12 dvdd.t41 sky130_fd_sc_hd__inv_4_0.Y pwup_filt.t31 dvdd.t40 sky130_fd_pr__pfet_01v8_hvt ad=0.135 pd=1.27 as=0.135 ps=1.27 w=1 l=0.15
X13 avdd.t399 a_429_n2876# a_1122_n3990# avdd.t398 sky130_fd_pr__pfet_g5v0d10v5 ad=0.1113 pd=1.37 as=0.1365 ps=1.49 w=0.42 l=1
X14 rstring_mux_0.vtop.t17 a_n16123_n19314# avss.t323 sky130_fd_pr__res_xhigh_po_1p41 l=35
X15 comparator_0.vn avss.t230 comparator_0.ibias avss.t231 sky130_fd_pr__nfet_g5v0d10v5 ad=0.29 pd=2.58 as=0.29 ps=2.58 w=1 l=1
X16 avss.t229 avss.t228 avss.t229 avss.t136 sky130_fd_pr__nfet_g5v0d10v5 ad=0.725 pd=5.29 as=0 ps=0 w=5 l=8
X17 dvss.t539 otrip_decoded[0].t0 a_n8119_n2964# dvss.t538 sky130_fd_pr__nfet_01v8 ad=0.1176 pd=1.12 as=0.2478 ps=2.27 w=0.84 l=0.15
X18 comparator_1.vpp rstring_mux_0.ena avdd.t528 avdd.t527 sky130_fd_pr__pfet_g5v0d10v5 ad=0.29 pd=2.58 as=0.29 ps=2.58 w=1 l=1
X19 comparator_1.n0 comparator_1.vpp avdd.t652 avdd.t73 sky130_fd_pr__pfet_g5v0d10v5 ad=0.145 pd=1.29 as=0.145 ps=1.29 w=1 l=8
X20 dvss.t720 a_7033_n3946# a_7458_n3990# dvss.t719 sky130_fd_pr__nfet_g5v0d10v5 ad=0.21 pd=1.78 as=0.21 ps=1.78 w=1.5 l=0.5
X21 rstring_mux_0.otrip_decoded_b_avdd[1] rstring_mux_0.otrip_decoded_avdd[1] avss.t301 avss.t300 sky130_fd_pr__nfet_g5v0d10v5 ad=0.21375 pd=2.07 as=0.21375 ps=2.07 w=0.75 l=0.5
X22 vin avdd.t394 vin avdd.t395 sky130_fd_pr__pfet_g5v0d10v5 ad=0.725 pd=5.29 as=23.2 ps=169.28 w=5 l=0.6
X23 comparator_1.vt vbg_1v2.t0 comparator_1.vnn comparator_1.vt sky130_fd_pr__nfet_g5v0d10v5 ad=0.145 pd=1.29 as=0.145 ps=1.29 w=1 l=8
X24 comparator_1.vpp comparator_1.vnn avdd.t90 avdd.t63 sky130_fd_pr__pfet_g5v0d10v5 ad=0.145 pd=1.29 as=0.145 ps=1.29 w=1 l=8
X25 dcomp.t31 sky130_fd_sc_hd__inv_4_3.Y dvdd.t312 dvdd.t311 sky130_fd_pr__pfet_01v8_hvt ad=0.135 pd=1.27 as=0.26 ps=2.52 w=1 l=0.15
X26 dvdd.t93 schmitt_trigger_0.in.t1 schmitt_trigger_0.m.t12 dvdd.t92 sky130_fd_pr__pfet_01v8 ad=0.145 pd=1.29 as=0.145 ps=1.29 w=1 l=0.5
X27 comparator_0.vnn comparator_0.vinn.t48 comparator_0.vt comparator_0.vt sky130_fd_pr__nfet_g5v0d10v5 ad=0.145 pd=1.29 as=0.145 ps=1.29 w=1 l=8
X28 a_3155_n11914# a_3533_n19314# avss.t244 sky130_fd_pr__res_xhigh_po_1p41 l=35
X29 a_n11209_n11914# a_n10831_n19314# avss.t394 sky130_fd_pr__res_xhigh_po_1p41 l=35
X30 comparator_1.vpp vin comparator_1.vt comparator_1.vt sky130_fd_pr__nfet_g5v0d10v5 ad=0.145 pd=1.29 as=0.145 ps=1.29 w=1 l=8
X31 rstring_mux_0.otrip_decoded_avdd[5] a_n2588_n1478# avdd.t621 avdd.t14 sky130_fd_pr__pfet_g5v0d10v5 ad=0.3975 pd=3.53 as=0.24375 ps=1.825 w=1.5 l=0.5
X32 dvdd.t280 a_10873_n2760# a_10873_n3956# dvdd.t278 sky130_fd_pr__pfet_01v8_hvt ad=0.2968 pd=2.77 as=0.2968 ps=2.77 w=1.12 l=0.15
X33 a_7458_n3990# a_7033_n3946# dvss.t718 dvss.t717 sky130_fd_pr__nfet_g5v0d10v5 ad=0.21 pd=1.78 as=0.3975 ps=3.53 w=1.5 l=0.5
X34 comparator_1.vpp comparator_1.vnn avdd.t89 avdd.t63 sky130_fd_pr__pfet_g5v0d10v5 ad=0.145 pd=1.29 as=0.145 ps=1.29 w=1 l=8
X35 ibias_gen_0.vr.t4 ibias_gen_0.vn0.t19 ibias_gen_0.vp0.t11 avss.t67 sky130_fd_pr__nfet_g5v0d10v5 ad=0.725 pd=5.29 as=0.725 ps=5.29 w=5 l=4
X36 avdd.t594 a_2541_n2876# a_3234_n3990# avdd.t593 sky130_fd_pr__pfet_g5v0d10v5 ad=0.1113 pd=1.37 as=0.1365 ps=1.49 w=0.42 l=1
X37 comparator_0.vpp comparator_0.vnn avdd.t204 avdd.t177 sky130_fd_pr__pfet_g5v0d10v5 ad=0.145 pd=1.29 as=0.145 ps=1.29 w=1 l=8
X38 a_n26830_n2937# a_n27208_n10337# avss.t0 sky130_fd_pr__res_xhigh_po_1p41 l=35
X39 dvdd.t273 sky130_fd_sc_hd__inv_4_4.Y por.t31 dvdd.t272 sky130_fd_pr__pfet_01v8_hvt ad=0.26 pd=2.52 as=0.135 ps=1.27 w=1 l=0.15
X40 dvss.t648 a_9145_n3946# a_9570_n3990# dvss.t647 sky130_fd_pr__nfet_g5v0d10v5 ad=0.21 pd=1.78 as=0.21 ps=1.78 w=1.5 l=0.5
X41 comparator_0.vt comparator_0.vinn.t49 comparator_0.vnn comparator_0.vt sky130_fd_pr__nfet_g5v0d10v5 ad=0.145 pd=1.29 as=0.145 ps=1.29 w=1 l=8
X42 porb_h.t15 sky130_fd_sc_hvl__inv_16_0.A avss.t373 avss.t372 sky130_fd_pr__nfet_g5v0d10v5 ad=0.105 pd=1.03 as=0.105 ps=1.03 w=0.75 l=0.5
X43 rstring_mux_0.vtrip_decoded_avdd[0] a_1636_n3212# dvss.t694 dvss.t693 sky130_fd_pr__nfet_g5v0d10v5 ad=0.19875 pd=2.03 as=0.121875 ps=1.075 w=0.75 l=0.5
X44 dvss.t114 a_6765_n2876# a_7972_n3212# dvss.t113 sky130_fd_pr__nfet_g5v0d10v5 ad=0.121875 pd=1.075 as=0.19875 ps=2.03 w=0.75 l=0.5
X45 avdd.t535 ibias_gen_0.isrc_sel ibias_gen_0.isrc_sel_b avdd.t534 sky130_fd_pr__pfet_g5v0d10v5 ad=1.45 pd=10.58 as=0.725 ps=5.29 w=5 l=1
X46 a_n8951_9395# a_n8573_1995# avss.t310 sky130_fd_pr__res_xhigh_po_1p41 l=35
X47 itest.t1 ibias_gen_0.vp.t7 avdd.t425 avdd.t424 sky130_fd_pr__pfet_g5v0d10v5 ad=0.725 pd=5.29 as=0.725 ps=5.29 w=5 l=4
X48 comparator_0.vinn.t47 avdd.t392 comparator_0.vinn.t47 avdd.t393 sky130_fd_pr__pfet_g5v0d10v5 ad=0.725 pd=5.29 as=0 ps=0 w=5 l=0.6
X49 comparator_1.vt vin comparator_1.vpp comparator_1.vt sky130_fd_pr__nfet_g5v0d10v5 ad=0.145 pd=1.29 as=0.145 ps=1.29 w=1 l=8
X50 rstring_mux_0.vtrip7.t7 a_n247_n19314# avss.t269 sky130_fd_pr__res_xhigh_po_1p41 l=35
X51 dvss.t88 sky130_fd_sc_hd__inv_4_0.Y pwup_filt.t15 dvss.t87 sky130_fd_pr__nfet_01v8 ad=0.08775 pd=0.92 as=0.08775 ps=0.92 w=0.65 l=0.15
X52 comparator_1.vt vin comparator_1.vpp comparator_1.vt sky130_fd_pr__nfet_g5v0d10v5 ad=0.145 pd=1.29 as=0.145 ps=1.29 w=1 l=8
X53 a_n24562_n2937# a_n24184_n10337# avss.t0 sky130_fd_pr__res_xhigh_po_1p41 l=35
X54 a_n21538_n2937# a_n21160_n10337# avss.t0 sky130_fd_pr__res_xhigh_po_1p41 l=35
X55 avdd.t626 a_4653_n2876# a_5346_n3990# avdd.t625 sky130_fd_pr__pfet_g5v0d10v5 ad=0.1113 pd=1.37 as=0.1365 ps=1.49 w=0.42 l=1
X56 vin avdd.t390 vin avdd.t391 sky130_fd_pr__pfet_g5v0d10v5 ad=0.725 pd=5.29 as=0 ps=0 w=5 l=0.6
X57 dvdd.t271 sky130_fd_sc_hd__inv_4_4.Y por.t30 dvdd.t270 sky130_fd_pr__pfet_01v8_hvt ad=0.135 pd=1.27 as=0.135 ps=1.27 w=1 l=0.15
X58 rstring_mux_0.otrip_decoded_b_avdd[2] rstring_mux_0.otrip_decoded_avdd[2] avss.t341 avss.t340 sky130_fd_pr__nfet_g5v0d10v5 ad=0.21375 pd=2.07 as=0.21375 ps=2.07 w=0.75 l=0.5
X59 a_6935_n11914# a_6557_n19314# avss.t322 sky130_fd_pr__res_xhigh_po_1p41 l=35
X60 avdd.t569 sky130_fd_sc_hvl__inv_16_0.A porb_h.t31 avdd.t568 sky130_fd_pr__pfet_g5v0d10v5 ad=0.21 pd=1.78 as=0.21 ps=1.78 w=1.5 l=0.5
X61 avss.t331 rstring_mux_0.ena rstring_mux_0.ena_b avss.t330 sky130_fd_pr__nfet_g5v0d10v5 ad=0.21375 pd=2.07 as=0.21375 ps=2.07 w=0.75 l=0.5
X62 a_n26830_n2937# a_n26452_n10337# avss.t0 sky130_fd_pr__res_xhigh_po_1p41 l=35
X63 a_n23806_n2937# a_n23428_n10337# avss.t0 sky130_fd_pr__res_xhigh_po_1p41 l=35
X64 comparator_0.vpp comparator_0.vnn avdd.t203 avdd.t177 sky130_fd_pr__pfet_g5v0d10v5 ad=0.145 pd=1.29 as=0.145 ps=1.29 w=1 l=8
X65 rstring_mux_0.vtrip2.t7 rstring_mux_0.vtrip_decoded_avdd[2] comparator_0.vinn.t44 avss.t381 sky130_fd_pr__nfet_g5v0d10v5 ad=0.725 pd=5.29 as=0.725 ps=5.29 w=5 l=0.6
X66 por.t15 sky130_fd_sc_hd__inv_4_4.Y dvss.t680 dvss.t679 sky130_fd_pr__nfet_01v8 ad=0.08775 pd=0.92 as=0.08775 ps=0.92 w=0.65 l=0.15
X67 rstring_mux_0.vtrip_decoded_avdd[2] a_3748_n3212# dvss.t692 dvss.t691 sky130_fd_pr__nfet_g5v0d10v5 ad=0.19875 pd=2.03 as=0.121875 ps=1.075 w=0.75 l=0.5
X68 a_n7326_n3990# a_n7751_n3946# dvss.t690 dvss.t689 sky130_fd_pr__nfet_g5v0d10v5 ad=0.3975 pd=3.53 as=0.21 ps=1.78 w=1.5 l=0.5
X69 a_6935_n11914# a_7313_n19314# avss.t387 sky130_fd_pr__res_xhigh_po_1p41 l=35
X70 a_n14989_n11914# a_n14611_n19314# avss.t321 sky130_fd_pr__res_xhigh_po_1p41 l=35
X71 a_n3649_n11914# a_n4027_n19314# avss.t251 sky130_fd_pr__res_xhigh_po_1p41 l=35
X72 dvdd.t241 vl sky130_fd_sc_hd__inv_4_3.Y dvdd.t240 sky130_fd_pr__pfet_01v8_hvt ad=0.26 pd=2.52 as=0.135 ps=1.27 w=1 l=0.15
X73 avdd.t15 a_n3795_n1142# a_n2588_n1478# avdd.t14 sky130_fd_pr__pfet_g5v0d10v5 ad=0.24375 pd=1.825 as=0.3975 ps=3.53 w=1.5 l=0.5
X74 sky130_fd_sc_hvl__inv_1_0.A a_n2571_7523# dvss.t696 dvss.t695 sky130_fd_pr__nfet_g5v0d10v5 ad=0.19875 pd=2.03 as=0.121875 ps=1.075 w=0.75 l=0.5
X75 dvss.t758 sky130_fd_sc_hd__inv_4_3.Y dcomp.t15 dvss.t757 sky130_fd_pr__nfet_01v8 ad=0.08775 pd=0.92 as=0.08775 ps=0.92 w=0.65 l=0.15
X76 comparator_0.vnn comparator_0.vpp avdd.t618 avdd.t186 sky130_fd_pr__pfet_g5v0d10v5 ad=0.145 pd=1.29 as=0.145 ps=1.29 w=1 l=8
X77 a_n4405_n11914# a_n4027_n19314# avss.t250 sky130_fd_pr__res_xhigh_po_1p41 l=35
X78 ibias_gen_0.vp1.t14 ibias_gen_0.vp1.t13 avdd.t98 avdd.t97 sky130_fd_pr__pfet_g5v0d10v5 ad=0.725 pd=5.29 as=0.725 ps=5.29 w=5 l=4
X79 a_n15529_n2223# ibias_gen_0.isrc_sel_b ibias_gen_0.vn1.t7 avdd.t491 sky130_fd_pr__pfet_g5v0d10v5 ad=0.725 pd=5.29 as=0.725 ps=5.29 w=5 l=0.6
X80 a_n1683_n1142# a_n1783_n1230# dvss.t613 dvss.t612 sky130_fd_pr__nfet_g5v0d10v5 ad=0.21 pd=1.78 as=0.3975 ps=3.53 w=1.5 l=0.5
X81 dvss.t319 dvss.t317 a_2441_n1230# dvss.t318 sky130_fd_pr__nfet_01v8 ad=0.1176 pd=1.12 as=0.2478 ps=2.27 w=0.84 l=0.15
X82 comparator_0.vpp comparator_0.vnn avdd.t202 avdd.t177 sky130_fd_pr__pfet_g5v0d10v5 ad=0.145 pd=1.29 as=0.145 ps=1.29 w=1 l=8
X83 avdd.t493 a_n3102_n2256# a_n3795_n1142# avdd.t492 sky130_fd_pr__pfet_g5v0d10v5 ad=0.2142 pd=1.99 as=0.2142 ps=1.99 w=0.42 l=1
X84 avdd.t41 a_6765_n2876# a_7458_n3990# avdd.t40 sky130_fd_pr__pfet_g5v0d10v5 ad=0.1113 pd=1.37 as=0.1365 ps=1.49 w=0.42 l=1
X85 a_2809_n3946# a_2441_n2964# dvdd.t133 dvdd.t132 sky130_fd_pr__pfet_01v8_hvt ad=0.2478 pd=2.27 as=0.1176 ps=1.12 w=0.84 l=0.15
X86 dvdd.t269 sky130_fd_sc_hd__inv_4_4.Y por.t29 dvdd.t268 sky130_fd_pr__pfet_01v8_hvt ad=0.135 pd=1.27 as=0.135 ps=1.27 w=1 l=0.15
X87 dvdd.t169 sky130_fd_sc_hd__inv_4_1.Y porb.t30 dvdd.t168 sky130_fd_pr__pfet_01v8_hvt ad=0.135 pd=1.27 as=0.135 ps=1.27 w=1 l=0.15
X88 dvss.t541 por_unbuf.t0 sky130_fd_sc_hd__inv_4_1.A dvss.t540 sky130_fd_pr__nfet_01v8 ad=0.08775 pd=0.92 as=0.08775 ps=0.92 w=0.65 l=0.15
X89 osc_ck.t2 osc_ena.t0 rc_osc_0.vr dvss.t477 sky130_fd_pr__nfet_01v8 ad=0.15 pd=1.3 as=0.1475 ps=1.295 w=1 l=0.18
X90 avdd.t201 comparator_0.vnn comparator_0.vnn avdd.t182 sky130_fd_pr__pfet_g5v0d10v5 ad=0.145 pd=1.29 as=0.145 ps=1.29 w=1 l=8
X91 rstring_mux_0.otrip_decoded_b_avdd[6] rstring_mux_0.otrip_decoded_avdd[6] avdd.t495 avdd.t494 sky130_fd_pr__pfet_g5v0d10v5 ad=0.4275 pd=3.57 as=0.4275 ps=3.57 w=1.5 l=0.5
X92 a_n10279_n24223# a_12321_n24601# dvss.t591 sky130_fd_pr__res_xhigh_po_1p41 l=111
X93 dcomp.t30 sky130_fd_sc_hd__inv_4_3.Y dvdd.t310 dvdd.t309 sky130_fd_pr__pfet_01v8_hvt ad=0.135 pd=1.27 as=0.135 ps=1.27 w=1 l=0.15
X94 dvdd.t39 sky130_fd_sc_hd__inv_4_0.Y pwup_filt.t30 dvdd.t38 sky130_fd_pr__pfet_01v8_hvt ad=0.135 pd=1.27 as=0.135 ps=1.27 w=1 l=0.15
X95 rstring_mux_0.vtrip3.t9 rstring_mux_0.vtrip_decoded_b_avdd[3] comparator_0.vinn.t36 avdd.t445 sky130_fd_pr__pfet_g5v0d10v5 ad=0.725 pd=5.29 as=0.725 ps=5.29 w=5 l=0.6
X96 dvdd.t49 rc_osc_0.m rc_osc_0.n.t3 dvdd.t48 sky130_fd_pr__pfet_01v8 ad=0.145 pd=1.29 as=0.145 ps=1.29 w=1 l=0.5
X97 avss.t295 comparator_1.vn comparator_1.vn avss.t278 sky130_fd_pr__nfet_g5v0d10v5 ad=0.145 pd=1.29 as=0.145 ps=1.29 w=1 l=8
X98 ibias_gen_0.vn0.t18 vbg_1v2.t1 ibias_gen_0.vstart.t10 avss.t128 sky130_fd_pr__nfet_g5v0d10v5 ad=0.725 pd=5.29 as=0.725 ps=5.29 w=5 l=0.6
X99 rc_osc_0.m rc_osc_0.in dvdd.t219 dvdd.t218 sky130_fd_pr__pfet_01v8 ad=0.145 pd=1.29 as=0.145 ps=1.29 w=1 l=0.5
X100 ibias_gen_0.vr.t2 a_n20404_n10337# avss.t0 sky130_fd_pr__res_xhigh_po_1p41 l=35
X101 avdd.t439 a_n5907_n1142# a_n4700_n1478# avdd.t438 sky130_fd_pr__pfet_g5v0d10v5 ad=0.24375 pd=1.825 as=0.3975 ps=3.53 w=1.5 l=0.5
X102 comparator_1.ena_b rstring_mux_0.ena avdd.t526 avdd.t525 sky130_fd_pr__pfet_g5v0d10v5 ad=0.29 pd=2.58 as=0.29 ps=2.58 w=1 l=1
X103 dvss.t521 sky130_fd_sc_hd__inv_4_1.Y porb.t15 dvss.t520 sky130_fd_pr__nfet_01v8 ad=0.08775 pd=0.92 as=0.08775 ps=0.92 w=0.65 l=0.15
X104 a_n13487_9395# a_n13109_1995# avss.t60 sky130_fd_pr__res_xhigh_po_1p41 l=35
X105 a_n3795_n1142# a_n3895_n1230# dvss.t373 dvss.t372 sky130_fd_pr__nfet_g5v0d10v5 ad=0.21 pd=1.78 as=0.3975 ps=3.53 w=1.5 l=0.5
X106 a_2541_n1142# a_2441_n1230# dvss.t52 dvss.t47 sky130_fd_pr__nfet_g5v0d10v5 ad=0.3975 pd=3.53 as=0.21 ps=1.78 w=1.5 l=0.5
X107 a_7033_n3946# a_6665_n2964# dvdd.t127 dvdd.t126 sky130_fd_pr__pfet_01v8_hvt ad=0.2478 pd=2.27 as=0.1176 ps=1.12 w=0.84 l=0.15
X108 sky130_fd_sc_hd__inv_4_1.Y sky130_fd_sc_hd__inv_4_1.A dvss.t599 dvss.t598 sky130_fd_pr__nfet_01v8 ad=0.08775 pd=0.92 as=0.169 ps=1.82 w=0.65 l=0.15
X109 schmitt_trigger_0.m.t0 schmitt_trigger_0.out.t4 dvdd.t53 dvdd.t52 sky130_fd_pr__pfet_01v8 ad=0.145 pd=1.29 as=0.145 ps=1.29 w=1 l=0.5
X110 a_n14243_9395# a_n14621_1995# avss.t256 sky130_fd_pr__res_xhigh_po_1p41 l=35
X111 dvdd.t320 dvdd.t318 schmitt_trigger_0.m.t13 dvdd.t319 sky130_fd_pr__pfet_01v8 ad=0.145 pd=1.29 as=0.145 ps=1.29 w=1 l=0.5
X112 dvdd.t135 otrip_decoded[6].t0 a_n1783_n2964# dvdd.t134 sky130_fd_pr__pfet_01v8_hvt ad=0.1176 pd=1.12 as=0.2478 ps=2.27 w=0.84 l=0.15
X113 avss.t38 comparator_1.n1 dcomp3v3 avss.t37 sky130_fd_pr__nfet_g5v0d10v5 ad=0.145 pd=1.29 as=0.145 ps=1.29 w=1 l=0.6
X114 dvss.t341 a_8877_n1142# a_10084_n1478# dvss.t175 sky130_fd_pr__nfet_g5v0d10v5 ad=0.121875 pd=1.075 as=0.19875 ps=2.03 w=0.75 l=0.5
X115 rstring_mux_0.vtrip_decoded_avdd[5] a_5860_n1478# avdd.t208 avdd.t207 sky130_fd_pr__pfet_g5v0d10v5 ad=0.3975 pd=3.53 as=0.24375 ps=1.825 w=1.5 l=0.5
X116 rstring_mux_0.otrip_decoded_b_avdd[1] rstring_mux_0.otrip_decoded_avdd[1] avdd.t487 avdd.t486 sky130_fd_pr__pfet_g5v0d10v5 ad=0.4275 pd=3.57 as=0.4275 ps=3.57 w=1.5 l=0.5
X117 a_n7429_n11914# a_n7807_n19314# avss.t249 sky130_fd_pr__res_xhigh_po_1p41 l=35
X118 dvss.t710 a_2541_n2876# a_3748_n3212# dvss.t709 sky130_fd_pr__nfet_g5v0d10v5 ad=0.121875 pd=1.075 as=0.19875 ps=2.03 w=0.75 l=0.5
X119 comparator_0.vnn comparator_0.vpp avdd.t617 avdd.t186 sky130_fd_pr__pfet_g5v0d10v5 ad=0.145 pd=1.29 as=0.145 ps=1.29 w=1 l=8
X120 avdd.t655 a_n8019_n1142# a_n6812_n1478# avdd.t10 sky130_fd_pr__pfet_g5v0d10v5 ad=0.24375 pd=1.825 as=0.3975 ps=3.53 w=1.5 l=0.5
X121 dcomp3v3uv comparator_0.n1 avdd.t62 avdd.t61 sky130_fd_pr__pfet_g5v0d10v5 ad=0.145 pd=1.29 as=0.145 ps=1.29 w=1 l=0.6
X122 comparator_0.vinn.t46 rstring_mux_0.vtrip_decoded_b_avdd[5] rstring_mux_0.vtrip5.t6 avdd.t579 sky130_fd_pr__pfet_g5v0d10v5 ad=0.725 pd=5.29 as=0.725 ps=5.29 w=5 l=0.6
X123 rstring_mux_0.otrip_decoded_avdd[5] a_n2588_n1478# dvss.t722 dvss.t721 sky130_fd_pr__nfet_g5v0d10v5 ad=0.19875 pd=2.03 as=0.121875 ps=1.075 w=0.75 l=0.5
X124 avdd.t651 comparator_1.vpp comparator_1.vpp avdd.t65 sky130_fd_pr__pfet_g5v0d10v5 ad=0.145 pd=1.29 as=0.145 ps=1.29 w=1 l=8
X125 a_4653_n1142# a_4553_n1230# dvss.t360 dvss.t47 sky130_fd_pr__nfet_g5v0d10v5 ad=0.3975 pd=3.53 as=0.21 ps=1.78 w=1.5 l=0.5
X126 a_9145_n3946# a_8777_n2964# dvdd.t51 dvdd.t50 sky130_fd_pr__pfet_01v8_hvt ad=0.2478 pd=2.27 as=0.1176 ps=1.12 w=0.84 l=0.15
X127 avdd.t200 comparator_0.vnn comparator_0.vnn avdd.t182 sky130_fd_pr__pfet_g5v0d10v5 ad=0.145 pd=1.29 as=0.145 ps=1.29 w=1 l=8
X128 comparator_1.vt vbg_1v2.t2 comparator_1.vnn comparator_1.vt sky130_fd_pr__nfet_g5v0d10v5 ad=0.145 pd=1.29 as=0.145 ps=1.29 w=1 l=8
X129 a_5423_n11914# a_5801_n19314# avss.t41 sky130_fd_pr__res_xhigh_po_1p41 l=35
X130 avdd.t88 comparator_1.vnn comparator_1.vpp avdd.t65 sky130_fd_pr__pfet_g5v0d10v5 ad=0.145 pd=1.29 as=0.145 ps=1.29 w=1 l=8
X131 a_n3085_6745# a_n3510_6789# dvss.t456 dvss.t455 sky130_fd_pr__nfet_g5v0d10v5 ad=0.3975 pd=3.53 as=0.21 ps=1.78 w=1.5 l=0.5
X132 comparator_0.vnn comparator_0.vinn.t50 comparator_0.vt comparator_0.vt sky130_fd_pr__nfet_g5v0d10v5 ad=0.145 pd=1.29 as=0.145 ps=1.29 w=1 l=8
X133 dvss.t543 por_unbuf.t1 sky130_fd_sc_hd__inv_4_4.Y dvss.t542 sky130_fd_pr__nfet_01v8 ad=0.08775 pd=0.92 as=0.08775 ps=0.92 w=0.65 l=0.15
X134 dvdd.t69 otrip_decoded[4].t0 a_n3895_n2964# dvdd.t68 sky130_fd_pr__pfet_01v8_hvt ad=0.1176 pd=1.12 as=0.2478 ps=2.27 w=0.84 l=0.15
X135 a_n11975_9395# a_n11597_1995# avss.t302 sky130_fd_pr__res_xhigh_po_1p41 l=35
X136 dvss.t86 sky130_fd_sc_hd__inv_4_0.Y pwup_filt.t14 dvss.t85 sky130_fd_pr__nfet_01v8 ad=0.169 pd=1.82 as=0.08775 ps=0.92 w=0.65 l=0.15
X137 dvss.t316 dvss.t314 a_329_n1230# dvss.t315 sky130_fd_pr__nfet_01v8 ad=0.1176 pd=1.12 as=0.2478 ps=2.27 w=0.84 l=0.15
X138 a_697_n3946# a_329_n2964# dvdd.t43 dvdd.t42 sky130_fd_pr__pfet_01v8_hvt ad=0.2478 pd=2.27 as=0.1176 ps=1.12 w=0.84 l=0.15
X139 avdd.t389 avdd.t387 avdd.t388 avdd.t221 sky130_fd_pr__pfet_g5v0d10v5 ad=0.29 pd=2.58 as=0 ps=0 w=1 l=8
X140 comparator_0.vpp comparator_0.vpp avdd.t616 avdd.t177 sky130_fd_pr__pfet_g5v0d10v5 ad=0.145 pd=1.29 as=0.145 ps=1.29 w=1 l=8
X141 rstring_mux_0.vtrip1.t2 rstring_mux_0.vtrip2.t0 avss.t42 sky130_fd_pr__res_xhigh_po_1p41 l=35
X142 dvss.t313 dvss.t311 osc_ck.t1 dvss.t312 sky130_fd_pr__nfet_01v8 ad=0.1475 pd=1.295 as=0.15 ps=1.3 w=1 l=0.18
X143 comparator_1.vm comparator_1.vm avss.t285 avss.t284 sky130_fd_pr__nfet_g5v0d10v5 ad=0.145 pd=1.29 as=0.145 ps=1.29 w=1 l=8
X144 dvdd.t267 sky130_fd_sc_hd__inv_4_4.Y por.t28 dvdd.t266 sky130_fd_pr__pfet_01v8_hvt ad=0.135 pd=1.27 as=0.135 ps=1.27 w=1 l=0.15
X145 avdd.t443 a_429_n1142# a_1636_n1478# avdd.t442 sky130_fd_pr__pfet_g5v0d10v5 ad=0.24375 pd=1.825 as=0.3975 ps=3.53 w=1.5 l=0.5
X146 dvss.t724 a_4653_n2876# a_5860_n3212# dvss.t723 sky130_fd_pr__nfet_g5v0d10v5 ad=0.121875 pd=1.075 as=0.19875 ps=2.03 w=0.75 l=0.5
X147 avdd.t485 rstring_mux_0.ena_b rstring_mux_0.vtop.t16 avdd.t484 sky130_fd_pr__pfet_g5v0d10v5 ad=0.725 pd=5.29 as=0.725 ps=5.29 w=5 l=0.6
X148 avdd.t421 comparator_0.n0 comparator_0.n1 avdd.t420 sky130_fd_pr__pfet_g5v0d10v5 ad=0.145 pd=1.29 as=0.145 ps=1.29 w=1 l=0.6
X149 avdd.t199 comparator_0.vnn comparator_0.vpp avdd.t179 sky130_fd_pr__pfet_g5v0d10v5 ad=0.145 pd=1.29 as=0.145 ps=1.29 w=1 l=8
X150 comparator_1.vpp comparator_1.vnn avdd.t87 avdd.t63 sky130_fd_pr__pfet_g5v0d10v5 ad=0.145 pd=1.29 as=0.145 ps=1.29 w=1 l=8
X151 dvdd.t55 schmitt_trigger_0.out.t5 schmitt_trigger_0.m.t1 dvdd.t54 sky130_fd_pr__pfet_01v8 ad=0.145 pd=1.29 as=0.145 ps=1.29 w=1 l=0.5
X152 ibias_gen_0.vp0.t9 ibias_gen_0.vp0.t8 avdd.t403 avdd.t402 sky130_fd_pr__pfet_g5v0d10v5 ad=0.725 pd=5.29 as=0.725 ps=5.29 w=5 l=4
X153 por.t14 sky130_fd_sc_hd__inv_4_4.Y dvss.t678 dvss.t677 sky130_fd_pr__nfet_01v8 ad=0.08775 pd=0.92 as=0.08775 ps=0.92 w=0.65 l=0.15
X154 rstring_mux_0.otrip_decoded_avdd[3] a_n4700_n1478# dvss.t571 dvss.t570 sky130_fd_pr__nfet_g5v0d10v5 ad=0.19875 pd=2.03 as=0.121875 ps=1.075 w=0.75 l=0.5
X155 avdd.t386 avdd.t385 avdd.t386 avdd.t240 sky130_fd_pr__pfet_g5v0d10v5 ad=0.145 pd=1.29 as=0 ps=0 w=1 l=8
X156 a_6765_n1142# a_6665_n1230# dvss.t588 dvss.t47 sky130_fd_pr__nfet_g5v0d10v5 ad=0.3975 pd=3.53 as=0.21 ps=1.78 w=1.5 l=0.5
X157 rstring_mux_0.vtop.t15 rstring_mux_0.ena_b avdd.t483 avdd.t482 sky130_fd_pr__pfet_g5v0d10v5 ad=0.725 pd=5.29 as=0.725 ps=5.29 w=5 l=0.6
X158 ibias_gen_0.ena_b rstring_mux_0.ena avss.t329 avss.t328 sky130_fd_pr__nfet_g5v0d10v5 ad=0.725 pd=5.29 as=1.45 ps=10.58 w=5 l=1
X159 rstring_mux_0.otrip_decoded_avdd[2] a_n4700_n3212# avdd.t417 avdd.t2 sky130_fd_pr__pfet_g5v0d10v5 ad=0.3975 pd=3.53 as=0.24375 ps=1.825 w=1.5 l=0.5
X160 dvdd.t187 otrip_decoded[2].t0 a_n6007_n2964# dvdd.t186 sky130_fd_pr__pfet_01v8_hvt ad=0.1176 pd=1.12 as=0.2478 ps=2.27 w=0.84 l=0.15
X161 vin rstring_mux_0.otrip_decoded_b_avdd[6] rstring_mux_0.vtrip6.t6 avdd.t451 sky130_fd_pr__pfet_g5v0d10v5 ad=0.725 pd=5.29 as=0.725 ps=5.29 w=5 l=0.6
X162 avdd.t650 comparator_1.vpp comparator_1.vpp avdd.t65 sky130_fd_pr__pfet_g5v0d10v5 ad=0.145 pd=1.29 as=0.145 ps=1.29 w=1 l=8
X163 porb_h.t14 sky130_fd_sc_hvl__inv_16_0.A avss.t371 avss.t370 sky130_fd_pr__nfet_g5v0d10v5 ad=0.105 pd=1.03 as=0.105 ps=1.03 w=0.75 l=0.5
X164 avss.t227 avss.t225 avss.t226 avss.t146 sky130_fd_pr__nfet_g5v0d10v5 ad=1.45 pd=10.58 as=0 ps=0 w=5 l=8
X165 dvss.t84 sky130_fd_sc_hd__inv_4_0.Y pwup_filt.t13 dvss.t83 sky130_fd_pr__nfet_01v8 ad=0.08775 pd=0.92 as=0.08775 ps=0.92 w=0.65 l=0.15
X166 a_10873_n2760# a_10514_n2760# dvss.t568 dvss.t565 sky130_fd_pr__nfet_g5v0d10v5 ad=0.19875 pd=2.03 as=0.105 ps=1.03 w=0.75 l=0.5
X167 a_887_n11914# a_509_n19314# avss.t386 sky130_fd_pr__res_xhigh_po_1p41 l=35
X168 comparator_0.vnn comparator_0.vpp avdd.t615 avdd.t186 sky130_fd_pr__pfet_g5v0d10v5 ad=0.145 pd=1.29 as=0.145 ps=1.29 w=1 l=8
X169 avdd.t198 comparator_0.vnn comparator_0.vnn avdd.t182 sky130_fd_pr__pfet_g5v0d10v5 ad=0.145 pd=1.29 as=0.145 ps=1.29 w=1 l=8
X170 ibias_gen_0.vp.t4 rstring_mux_0.ena avdd.t524 avdd.t523 sky130_fd_pr__pfet_g5v0d10v5 ad=1.45 pd=10.58 as=0.725 ps=5.29 w=5 l=2
X171 avdd.t423 a_1122_n2256# a_429_n1142# avdd.t422 sky130_fd_pr__pfet_g5v0d10v5 ad=0.2142 pd=1.99 as=0.2142 ps=1.99 w=0.42 l=1
X172 osc_ck.t3 rc_osc_0.n.t6 dvss.t535 dvss.t534 sky130_fd_pr__nfet_01v8 ad=0.29 pd=2.58 as=0.145 ps=1.29 w=1 l=0.5
X173 avdd.t481 rstring_mux_0.ena_b rstring_mux_0.vtop.t14 avdd.t480 sky130_fd_pr__pfet_g5v0d10v5 ad=0.725 pd=5.29 as=0.725 ps=5.29 w=5 l=0.6
X174 dvdd.t265 sky130_fd_sc_hd__inv_4_4.Y por.t27 dvdd.t264 sky130_fd_pr__pfet_01v8_hvt ad=0.135 pd=1.27 as=0.135 ps=1.27 w=1 l=0.15
X175 comparator_0.vt vbg_1v2.t3 comparator_0.vpp comparator_0.vt sky130_fd_pr__nfet_g5v0d10v5 ad=0.145 pd=1.29 as=0.145 ps=1.29 w=1 l=8
X176 avdd.t427 ibias_gen_0.vp.t8 ibias_gen_0.ibias0 avdd.t426 sky130_fd_pr__pfet_g5v0d10v5 ad=0.725 pd=5.29 as=0.725 ps=5.29 w=5 l=4
X177 dvss.t138 dcomp3v3uv a_10514_n2760# dvss.t137 sky130_fd_pr__nfet_g5v0d10v5 ad=0.178875 pd=1.26 as=0.1197 ps=1.41 w=0.42 l=0.5
X178 rstring_mux_0.vtrip_decoded_b_avdd[0] rstring_mux_0.vtrip_decoded_avdd[0] avss.t377 avss.t376 sky130_fd_pr__nfet_g5v0d10v5 ad=0.21375 pd=2.07 as=0.21375 ps=2.07 w=0.75 l=0.5
X179 comparator_1.n1 comparator_1.n0 avss.t385 avss.t384 sky130_fd_pr__nfet_g5v0d10v5 ad=0.145 pd=1.29 as=0.29 ps=2.58 w=1 l=0.6
X180 ibias_gen_0.vn0.t6 ibias_gen_0.vn0.t5 ibias_gen_0.ve.t4 avss.t67 sky130_fd_pr__nfet_g5v0d10v5 ad=0.725 pd=5.29 as=0.725 ps=5.29 w=5 l=4
X181 ibias_gen_0.vp.t3 ibias_gen_0.isrc_sel_b ibias_gen_0.vp0.t3 avss.t305 sky130_fd_pr__nfet_g5v0d10v5 ad=0.725 pd=5.29 as=0.725 ps=5.29 w=5 l=0.6
X182 avss.t393 comparator_0.vn comparator_0.vt avss.t109 sky130_fd_pr__nfet_g5v0d10v5 ad=0.145 pd=1.29 as=0.145 ps=1.29 w=1 l=8
X183 avdd.t384 avdd.t382 avdd.t383 avdd.t221 sky130_fd_pr__pfet_g5v0d10v5 ad=0.29 pd=2.58 as=0 ps=0 w=1 l=8
X184 comparator_0.vinn.t33 avdd.t380 vin avdd.t381 sky130_fd_pr__pfet_g5v0d10v5 ad=0.725 pd=5.29 as=0.725 ps=5.29 w=5 l=0.6
X185 avss.t369 sky130_fd_sc_hvl__inv_16_0.A porb_h.t13 avss.t368 sky130_fd_pr__nfet_g5v0d10v5 ad=0.105 pd=1.03 as=0.105 ps=1.03 w=0.75 l=0.5
X186 rstring_mux_0.vtop.t13 rstring_mux_0.ena_b avdd.t479 avdd.t478 sky130_fd_pr__pfet_g5v0d10v5 ad=0.725 pd=5.29 as=0.725 ps=5.29 w=5 l=0.6
X187 comparator_1.vpp comparator_1.vnn avdd.t86 avdd.t63 sky130_fd_pr__pfet_g5v0d10v5 ad=0.145 pd=1.29 as=0.145 ps=1.29 w=1 l=8
X188 ibias_gen_0.vp1.t0 ibias_gen_0.vn1.t10 avss.t119 avss.t117 sky130_fd_pr__nfet_g5v0d10v5 ad=0.725 pd=5.29 as=0.725 ps=5.29 w=5 l=8
X189 a_n5917_n11914# a_n6295_n19314# avss.t320 sky130_fd_pr__res_xhigh_po_1p41 l=35
X190 avdd.t197 comparator_0.vnn comparator_0.vpp avdd.t179 sky130_fd_pr__pfet_g5v0d10v5 ad=0.145 pd=1.29 as=0.145 ps=1.29 w=1 l=8
X191 a_n7751_n2212# a_n8119_n1230# dvss.t626 dvss.t625 sky130_fd_pr__nfet_01v8 ad=0.2478 pd=2.27 as=0.1176 ps=1.12 w=0.84 l=0.15
X192 rstring_mux_0.otrip_decoded_avdd[0] a_n6812_n3212# avdd.t499 avdd.t498 sky130_fd_pr__pfet_g5v0d10v5 ad=0.3975 pd=3.53 as=0.24375 ps=1.825 w=1.5 l=0.5
X193 rstring_mux_0.vtrip_decoded_b_avdd[4] rstring_mux_0.vtrip_decoded_avdd[4] avss.t23 avss.t22 sky130_fd_pr__nfet_g5v0d10v5 ad=0.21375 pd=2.07 as=0.21375 ps=2.07 w=0.75 l=0.5
X194 dvss.t82 sky130_fd_sc_hd__inv_4_0.Y pwup_filt.t12 dvss.t81 sky130_fd_pr__nfet_01v8 ad=0.08775 pd=0.92 as=0.08775 ps=0.92 w=0.65 l=0.15
X195 dvss.t519 sky130_fd_sc_hd__inv_4_1.Y porb.t14 dvss.t518 sky130_fd_pr__nfet_01v8 ad=0.08775 pd=0.92 as=0.08775 ps=0.92 w=0.65 l=0.15
X196 dvdd.t189 otrip_decoded[0].t1 a_n8119_n2964# dvdd.t188 sky130_fd_pr__pfet_01v8_hvt ad=0.1176 pd=1.12 as=0.2478 ps=2.27 w=0.84 l=0.15
X197 vin rstring_mux_0.otrip_decoded_b_avdd[1] rstring_mux_0.vtrip1.t7 avdd.t414 sky130_fd_pr__pfet_g5v0d10v5 ad=0.725 pd=5.29 as=0.725 ps=5.29 w=5 l=0.6
X198 rc_osc_0.in a_12321_n25357# dvss.t614 sky130_fd_pr__res_xhigh_po_1p41 l=111
X199 avdd.t567 sky130_fd_sc_hvl__inv_16_0.A porb_h.t30 avdd.t566 sky130_fd_pr__pfet_g5v0d10v5 ad=0.21 pd=1.78 as=0.21 ps=1.78 w=1.5 l=0.5
X200 dcomp3v3 comparator_1.n1 avdd.t31 avdd.t30 sky130_fd_pr__pfet_g5v0d10v5 ad=0.145 pd=1.29 as=0.145 ps=1.29 w=1 l=0.6
X201 sky130_fd_sc_hd__inv_4_1.Y sky130_fd_sc_hd__inv_4_1.A dvss.t597 dvss.t596 sky130_fd_pr__nfet_01v8 ad=0.08775 pd=0.92 as=0.08775 ps=0.92 w=0.65 l=0.15
X202 rstring_mux_0.vtrip_decoded_avdd[1] a_1636_n1478# avdd.t448 avdd.t442 sky130_fd_pr__pfet_g5v0d10v5 ad=0.3975 pd=3.53 as=0.24375 ps=1.825 w=1.5 l=0.5
X203 avdd.t504 a_6765_n1142# a_7972_n1478# avdd.t101 sky130_fd_pr__pfet_g5v0d10v5 ad=0.24375 pd=1.825 as=0.3975 ps=3.53 w=1.5 l=0.5
X204 avdd.t100 a_3234_n2256# a_2541_n1142# avdd.t99 sky130_fd_pr__pfet_g5v0d10v5 ad=0.2142 pd=1.99 as=0.2142 ps=1.99 w=0.42 l=1
X205 a_n8195_9395# schmitt_trigger_0.in.t0 avss.t71 sky130_fd_pr__res_xhigh_po_1p41 l=35
X206 rc_osc_0.vr dvdd.t316 rc_osc_0.ena_b dvdd.t317 sky130_fd_pr__pfet_01v8 ad=0.1475 pd=1.295 as=0.145 ps=1.29 w=1 l=0.5
X207 vin rstring_mux_0.otrip_decoded_avdd[0] rstring_mux_0.vtrip0.t5 avss.t314 sky130_fd_pr__nfet_g5v0d10v5 ad=0.725 pd=5.29 as=0.725 ps=5.29 w=5 l=0.6
X208 comparator_0.vnn comparator_0.vpp avdd.t614 avdd.t186 sky130_fd_pr__pfet_g5v0d10v5 ad=0.145 pd=1.29 as=0.145 ps=1.29 w=1 l=8
X209 a_n8951_9395# a_n9329_1995# avss.t315 sky130_fd_pr__res_xhigh_po_1p41 l=35
X210 avss.t224 avss.t222 avss.t223 avss.t146 sky130_fd_pr__nfet_g5v0d10v5 ad=1.45 pd=10.58 as=0 ps=0 w=5 l=8
X211 dcomp.t29 sky130_fd_sc_hd__inv_4_3.Y dvdd.t308 dvdd.t307 sky130_fd_pr__pfet_01v8_hvt ad=0.135 pd=1.27 as=0.135 ps=1.27 w=1 l=0.15
X212 vin avdd.t378 vin avdd.t379 sky130_fd_pr__pfet_g5v0d10v5 ad=0.725 pd=5.29 as=0 ps=0 w=5 l=0.6
X213 avdd.t85 comparator_1.vnn comparator_1.vnn avdd.t80 sky130_fd_pr__pfet_g5v0d10v5 ad=0.145 pd=1.29 as=0.145 ps=1.29 w=1 l=8
X214 dvdd.t115 dvss.t770 a_2441_n1230# dvdd.t114 sky130_fd_pr__pfet_01v8_hvt ad=0.1176 pd=1.12 as=0.2478 ps=2.27 w=0.84 l=0.15
X215 rstring_mux_0.otrip_decoded_b_avdd[4] rstring_mux_0.otrip_decoded_avdd[4] avss.t79 avss.t78 sky130_fd_pr__nfet_g5v0d10v5 ad=0.21375 pd=2.07 as=0.21375 ps=2.07 w=0.75 l=0.5
X216 avdd.t377 avdd.t376 avdd.t377 avdd.t240 sky130_fd_pr__pfet_g5v0d10v5 ad=0.145 pd=1.29 as=0 ps=0 w=1 l=8
X217 comparator_0.vinn.t34 avdd.t374 comparator_0.vinn.t34 avdd.t375 sky130_fd_pr__pfet_g5v0d10v5 ad=0.725 pd=5.29 as=0 ps=0 w=5 l=0.6
X218 avdd.t429 ibias_gen_0.vp.t9 itest.t0 avdd.t428 sky130_fd_pr__pfet_g5v0d10v5 ad=0.725 pd=5.29 as=0.725 ps=5.29 w=5 l=4
X219 vin rstring_mux_0.otrip_decoded_avdd[4] rstring_mux_0.vtrip4.t6 avss.t77 sky130_fd_pr__nfet_g5v0d10v5 ad=0.725 pd=5.29 as=0.725 ps=5.29 w=5 l=0.6
X220 avdd.t649 comparator_1.vpp comparator_1.vpp avdd.t65 sky130_fd_pr__pfet_g5v0d10v5 ad=0.145 pd=1.29 as=0.145 ps=1.29 w=1 l=8
X221 porb_h.t29 sky130_fd_sc_hvl__inv_16_0.A avdd.t565 avdd.t564 sky130_fd_pr__pfet_g5v0d10v5 ad=0.21 pd=1.78 as=0.21 ps=1.78 w=1.5 l=0.5
X222 ibias_gen_0.vstart.t9 vbg_1v2.t4 ibias_gen_0.vn0.t17 avss.t128 sky130_fd_pr__nfet_g5v0d10v5 ad=0.725 pd=5.29 as=0.725 ps=5.29 w=5 l=0.6
X223 ibias_gen_0.isrc_sel_b avss.t220 ibias_gen_0.ena_b avss.t221 sky130_fd_pr__nfet_g5v0d10v5 ad=0.725 pd=5.29 as=0.725 ps=5.29 w=5 l=1
X224 a_n1683_n1142# a_n1783_n1230# dvss.t611 dvss.t610 sky130_fd_pr__nfet_g5v0d10v5 ad=0.21 pd=1.78 as=0.21 ps=1.78 w=1.5 l=0.5
X225 comparator_1.vn rstring_mux_0.ena ibias_gen_0.ibias0 avss.t327 sky130_fd_pr__nfet_g5v0d10v5 ad=0.29 pd=2.58 as=0.29 ps=2.58 w=1 l=1
X226 comparator_0.vnn comparator_0.vpp avdd.t613 avdd.t186 sky130_fd_pr__pfet_g5v0d10v5 ad=0.145 pd=1.29 as=0.145 ps=1.29 w=1 l=8
X227 comparator_1.vt vbg_1v2.t5 comparator_1.vnn comparator_1.vt sky130_fd_pr__nfet_g5v0d10v5 ad=0.145 pd=1.29 as=0.145 ps=1.29 w=1 l=8
X228 comparator_0.vnn comparator_0.vinn.t51 comparator_0.vt comparator_0.vt sky130_fd_pr__nfet_g5v0d10v5 ad=0.145 pd=1.29 as=0.145 ps=1.29 w=1 l=8