* NGSPICE file created from por_ana_rcx.ext - technology: sky130A

*.subckt por_ana_rcx otrip_decoded[1] otrip_decoded[0] itest ibg_200n osc_ck porb_h
*+ por porb force_pdnb otrip_decoded[7] otrip_decoded[4] isrc_sel otrip_decoded[5]
*+ otrip_decoded[2] vin vbg_1v2 pwup_filt dcomp por_unbuf otrip_decoded[3] otrip_decoded[6]
*+ avss dvdd dvss avdd osc_ena

.subckt por_ana vin otrip_decoded[7] otrip_decoded[6] otrip_decoded[5] otrip_decoded[4] otrip_decoded[3] otrip_decoded[2] otrip_decoded[1] otrip_decoded[0] 
+vbg_1v2 avdd itest avss ibg_200n force_pdnb dvdd dvss dcomp isrc_sel pwup_filt osc_ck osc_ena porb_h por_unbuf por porb


X0 a_n3778_7859# a_n3878_7771# dvss.t282 dvss.t281 sky130_fd_pr__nfet_g5v0d10v5 ad=0.3975 pd=3.53 as=0.21 ps=1.78 w=1.5 l=0.5
X1 a_8447_n11914# a_8069_n19314# avss.t138 sky130_fd_pr__res_xhigh_po_1p41 l=35
X2 avss.t125 comparator_1.n1.t4 dcomp3v3 avss.t124 sky130_fd_pr__nfet_g5v0d10v5 ad=0.29 pd=2.58 as=0.145 ps=1.29 w=1 l=0.6
X3 comparator_1.vt.t44 avss.t410 comparator_1.vnn.t28 comparator_1.vt.t27 sky130_fd_pr__nfet_g5v0d10v5 ad=0.29 pd=2.58 as=0.145 ps=1.29 w=1 l=8
X4 a_n15745_n11914# a_n16123_n19314# avss.t137 sky130_fd_pr__res_xhigh_po_1p41 l=35
X5 rstring_mux_0.vtrip4.t2 rstring_mux_0.vtrip_decoded_avdd[4].t2 comparator_0.vinn.t16 avss.t100 sky130_fd_pr__nfet_g5v0d10v5 ad=0.725 pd=5.29 as=0.725 ps=5.29 w=5 l=0.6
X6 avdd.t360 comparator_1.n1.t5 dcomp3v3 avdd.t359 sky130_fd_pr__pfet_g5v0d10v5 ad=0.145 pd=1.29 as=0.145 ps=1.29 w=1 l=0.6
X7 dvdd.t133 sky130_fd_sc_hd__inv_4_1.Y porb.t7 dvdd.t132 sky130_fd_pr__pfet_01v8_hvt ad=0.135 pd=1.27 as=0.135 ps=1.27 w=1 l=0.15
X8 rstring_mux_0.vtrip_decoded_b_avdd[7] rstring_mux_0.vtrip_decoded_avdd[7].t2 avss.t49 avss.t48 sky130_fd_pr__nfet_g5v0d10v5 ad=0.21375 pd=2.07 as=0.21375 ps=2.07 w=0.75 l=0.5
X9 dvdd.t146 dvdd.t144 osc_ck.t4 dvdd.t145 sky130_fd_pr__pfet_01v8 ad=0.1475 pd=1.295 as=0.15 ps=1.3 w=1 l=0.18
X10 a_5346_n3990# a_4921_n3946# dvss.t137 dvss.t136 sky130_fd_pr__nfet_g5v0d10v5 ad=0.21 pd=1.78 as=0.3975 ps=3.53 w=1.5 l=0.5
X11 rc_osc_0.n.t4 dvdd.t142 rc_osc_0.m dvdd.t143 sky130_fd_pr__pfet_01v8 ad=0.145 pd=1.29 as=0.145 ps=1.29 w=1 l=0.5
X12 dvdd.t101 sky130_fd_sc_hd__inv_4_0.Y pwup_filt.t15 dvdd.t100 sky130_fd_pr__pfet_01v8_hvt ad=0.135 pd=1.27 as=0.135 ps=1.27 w=1 l=0.15
X13 avdd.t116 a_429_n2876# a_1122_n3990# avdd.t115 sky130_fd_pr__pfet_g5v0d10v5 ad=0.1113 pd=1.37 as=0.1365 ps=1.49 w=0.42 l=1
X14 rstring_mux_0.vtop.t0 a_n16123_n19314# avss.t107 sky130_fd_pr__res_xhigh_po_1p41 l=35
X15 comparator_0.vn.t6 avss.t236 comparator_0.ibias.t2 avss.t237 sky130_fd_pr__nfet_g5v0d10v5 ad=0.29 pd=2.58 as=0.29 ps=2.58 w=1 l=1
X16 avss.t235 avss.t234 avss.t235 avss.t142 sky130_fd_pr__nfet_g5v0d10v5 ad=0.725 pd=5.29 as=0 ps=0 w=5 l=8
X17 dvss.t286 otrip_decoded[0].t0 a_n8119_n2964# dvss.t285 sky130_fd_pr__nfet_01v8 ad=0.1176 pd=1.12 as=0.2478 ps=2.27 w=0.84 l=0.15
X18 comparator_1.vpp.t16 rstring_mux_0.ena.t1 avdd.t398 avdd.t397 sky130_fd_pr__pfet_g5v0d10v5 ad=0.29 pd=2.58 as=0.29 ps=2.58 w=1 l=1
X19 comparator_1.n0.t1 comparator_1.vpp.t47 avdd.t444 avdd.t22 sky130_fd_pr__pfet_g5v0d10v5 ad=0.145 pd=1.29 as=0.145 ps=1.29 w=1 l=8
X20 dvss.t111 a_7033_n3946# a_7458_n3990# dvss.t110 sky130_fd_pr__nfet_g5v0d10v5 ad=0.21 pd=1.78 as=0.21 ps=1.78 w=1.5 l=0.5
X21 rstring_mux_0.otrip_decoded_b_avdd[1] rstring_mux_0.otrip_decoded_avdd[1] avss.t409 avss.t408 sky130_fd_pr__nfet_g5v0d10v5 ad=0.21375 pd=2.07 as=0.21375 ps=2.07 w=0.75 l=0.5
X22 vin avdd.t314 vin avdd.t315 sky130_fd_pr__pfet_g5v0d10v5 ad=0.725 pd=5.29 as=23.2 ps=169.28 w=5 l=0.6
X23 comparator_1.vt.t8 vbg_1v2.t0 comparator_1.vnn comparator_1.vt.t2 sky130_fd_pr__nfet_g5v0d10v5 ad=0.145 pd=1.29 as=0.145 ps=1.29 w=1 l=8
X24 comparator_1.vpp.t46 comparator_1.vnn.t47 avdd.t342 avdd.t318 sky130_fd_pr__pfet_g5v0d10v5 ad=0.145 pd=1.29 as=0.145 ps=1.29 w=1 l=8
X25 dcomp.t15 sky130_fd_sc_hd__inv_4_3.Y dvdd.t325 dvdd.t324 sky130_fd_pr__pfet_01v8_hvt ad=0.135 pd=1.27 as=0.26 ps=2.52 w=1 l=0.15
X26 dvdd.t31 schmitt_trigger_0.in.t1 schmitt_trigger_0.m.t11 dvdd.t30 sky130_fd_pr__pfet_01v8 ad=0.145 pd=1.29 as=0.145 ps=1.29 w=1 l=0.5
X27 comparator_0.vnn.t7 comparator_0.vinn.t48 comparator_0.vt.t19 comparator_0.vt.t2 sky130_fd_pr__nfet_g5v0d10v5 ad=0.145 pd=1.29 as=0.145 ps=1.29 w=1 l=8
X28 a_3155_n11914# a_3533_n19314# avss.t405 sky130_fd_pr__res_xhigh_po_1p41 l=35
X29 a_n11209_n11914# a_n10831_n19314# avss.t404 sky130_fd_pr__res_xhigh_po_1p41 l=35
X30 comparator_1.vpp.t32 vin comparator_1.vt.t26 comparator_1.vt.t11 sky130_fd_pr__nfet_g5v0d10v5 ad=0.145 pd=1.29 as=0.145 ps=1.29 w=1 l=8
X31 rstring_mux_0.otrip_decoded_avdd[5] a_n2588_n1478# avdd.t104 avdd.t103 sky130_fd_pr__pfet_g5v0d10v5 ad=0.3975 pd=3.53 as=0.24375 ps=1.825 w=1.5 l=0.5
X32 dvdd.t5 a_10873_n2760# a_10873_n3956# dvdd.t4 sky130_fd_pr__pfet_01v8_hvt ad=0.2968 pd=2.77 as=0.2968 ps=2.77 w=1.12 l=0.15
X33 a_7458_n3990# a_7033_n3946# dvss.t109 dvss.t108 sky130_fd_pr__nfet_g5v0d10v5 ad=0.21 pd=1.78 as=0.3975 ps=3.53 w=1.5 l=0.5
X34 comparator_1.vpp.t45 comparator_1.vnn.t48 avdd.t341 avdd.t318 sky130_fd_pr__pfet_g5v0d10v5 ad=0.145 pd=1.29 as=0.145 ps=1.29 w=1 l=8
X35 ibias_gen_0.vr.t4 ibias_gen_0.vn0.t19 ibias_gen_0.vp0.t11 avss.t96 sky130_fd_pr__nfet_g5v0d10v5 ad=0.725 pd=5.29 as=0.725 ps=5.29 w=5 l=4
X36 avdd.t651 a_2541_n2876# a_3234_n3990# avdd.t650 sky130_fd_pr__pfet_g5v0d10v5 ad=0.1113 pd=1.37 as=0.1365 ps=1.49 w=0.42 l=1
X37 comparator_0.vpp.t46 comparator_0.vnn.t47 avdd.t132 avdd.t31 sky130_fd_pr__pfet_g5v0d10v5 ad=0.145 pd=1.29 as=0.145 ps=1.29 w=1 l=8
X38 a_n26830_n2937# a_n27208_n10337# avss.t10 sky130_fd_pr__res_xhigh_po_1p41 l=35
X39 dvdd.t290 sky130_fd_sc_hd__inv_4_4.Y por.t15 dvdd.t289 sky130_fd_pr__pfet_01v8_hvt ad=0.26 pd=2.52 as=0.135 ps=1.27 w=1 l=0.15
X40 dvss.t699 a_9145_n3946# a_9570_n3990# dvss.t698 sky130_fd_pr__nfet_g5v0d10v5 ad=0.21 pd=1.78 as=0.21 ps=1.78 w=1.5 l=0.5
X41 comparator_0.vt.t18 comparator_0.vinn.t49 comparator_0.vnn comparator_0.vt.t5 sky130_fd_pr__nfet_g5v0d10v5 ad=0.145 pd=1.29 as=0.145 ps=1.29 w=1 l=8
X42 porb_h.t31 sky130_fd_sc_hvl__inv_16_0.A.t8 avss.t62 avss.t61 sky130_fd_pr__nfet_g5v0d10v5 ad=0.105 pd=1.03 as=0.105 ps=1.03 w=0.75 l=0.5
X43 rstring_mux_0.vtrip_decoded_avdd[0] a_1636_n3212# dvss.t733 dvss.t732 sky130_fd_pr__nfet_g5v0d10v5 ad=0.19875 pd=2.03 as=0.121875 ps=1.075 w=0.75 l=0.5
X44 dvss.t689 a_6765_n2876# a_7972_n3212# dvss.t688 sky130_fd_pr__nfet_g5v0d10v5 ad=0.121875 pd=1.075 as=0.19875 ps=2.03 w=0.75 l=0.5
X45 avdd.t78 ibias_gen_0.isrc_sel.t2 ibias_gen_0.isrc_sel_b.t2 avdd.t77 sky130_fd_pr__pfet_g5v0d10v5 ad=1.45 pd=10.58 as=0.725 ps=5.29 w=5 l=1
X46 a_n8951_9395# a_n8573_1995# avss.t403 sky130_fd_pr__res_xhigh_po_1p41 l=35
X47 itest.t1 ibias_gen_0.vp.t7 avdd.t15 avdd.t14 sky130_fd_pr__pfet_g5v0d10v5 ad=0.725 pd=5.29 as=0.725 ps=5.29 w=5 l=4
X48 comparator_0.vinn.t11 avdd.t312 comparator_0.vinn.t11 avdd.t313 sky130_fd_pr__pfet_g5v0d10v5 ad=0.725 pd=5.29 as=0 ps=0 w=5 l=0.6
X49 comparator_1.vt.t25 vin comparator_1.vpp.t31 comparator_1.vt.t9 sky130_fd_pr__nfet_g5v0d10v5 ad=0.145 pd=1.29 as=0.145 ps=1.29 w=1 l=8
X50 rstring_mux_0.vtrip7.t9 a_n247_n19314# avss.t398 sky130_fd_pr__res_xhigh_po_1p41 l=35
X51 dvss.t197 sky130_fd_sc_hd__inv_4_0.Y pwup_filt.t31 dvss.t196 sky130_fd_pr__nfet_01v8 ad=0.08775 pd=0.92 as=0.08775 ps=0.92 w=0.65 l=0.15
X52 comparator_1.vt.t24 vin comparator_1.vpp.t30 comparator_1.vt.t9 sky130_fd_pr__nfet_g5v0d10v5 ad=0.145 pd=1.29 as=0.145 ps=1.29 w=1 l=8
X53 a_n24562_n2937# a_n24184_n10337# avss.t10 sky130_fd_pr__res_xhigh_po_1p41 l=35
X54 a_n21538_n2937# a_n21160_n10337# avss.t10 sky130_fd_pr__res_xhigh_po_1p41 l=35
X55 avdd.t638 a_4653_n2876# a_5346_n3990# avdd.t637 sky130_fd_pr__pfet_g5v0d10v5 ad=0.1113 pd=1.37 as=0.1365 ps=1.49 w=0.42 l=1
X56 vin avdd.t310 vin avdd.t311 sky130_fd_pr__pfet_g5v0d10v5 ad=0.725 pd=5.29 as=0 ps=0 w=5 l=0.6
X57 dvdd.t288 sky130_fd_sc_hd__inv_4_4.Y por.t14 dvdd.t287 sky130_fd_pr__pfet_01v8_hvt ad=0.135 pd=1.27 as=0.135 ps=1.27 w=1 l=0.15
X58 rstring_mux_0.otrip_decoded_b_avdd[2] rstring_mux_0.otrip_decoded_avdd[2] avss.t397 avss.t396 sky130_fd_pr__nfet_g5v0d10v5 ad=0.21375 pd=2.07 as=0.21375 ps=2.07 w=0.75 l=0.5
X59 a_6935_n11914# a_6557_n19314# avss.t393 sky130_fd_pr__res_xhigh_po_1p41 l=35
X60 avdd.t21 sky130_fd_sc_hvl__inv_16_0.A.t9 porb_h.t15 avdd.t20 sky130_fd_pr__pfet_g5v0d10v5 ad=0.21 pd=1.78 as=0.21 ps=1.78 w=1.5 l=0.5
X61 avss.t247 rstring_mux_0.ena.t2 rstring_mux_0.ena_b avss.t246 sky130_fd_pr__nfet_g5v0d10v5 ad=0.21375 pd=2.07 as=0.21375 ps=2.07 w=0.75 l=0.5
X62 a_n26830_n2937# a_n26452_n10337# avss.t10 sky130_fd_pr__res_xhigh_po_1p41 l=35
X63 a_n23806_n2937# a_n23428_n10337# avss.t10 sky130_fd_pr__res_xhigh_po_1p41 l=35
X64 comparator_0.vpp.t45 comparator_0.vnn.t48 avdd.t125 avdd.t31 sky130_fd_pr__pfet_g5v0d10v5 ad=0.145 pd=1.29 as=0.145 ps=1.29 w=1 l=8
X65 rstring_mux_0.vtrip2.t5 rstring_mux_0.vtrip_decoded_avdd[2] comparator_0.vinn.t45 avss.t390 sky130_fd_pr__nfet_g5v0d10v5 ad=0.725 pd=5.29 as=0.725 ps=5.29 w=5 l=0.6
X66 por.t31 sky130_fd_sc_hd__inv_4_4.Y dvss.t731 dvss.t730 sky130_fd_pr__nfet_01v8 ad=0.08775 pd=0.92 as=0.08775 ps=0.92 w=0.65 l=0.15
X67 rstring_mux_0.vtrip_decoded_avdd[2] a_3748_n3212# dvss.t683 dvss.t682 sky130_fd_pr__nfet_g5v0d10v5 ad=0.19875 pd=2.03 as=0.121875 ps=1.075 w=0.75 l=0.5
X68 a_n7326_n3990# a_n7751_n3946# dvss.t681 dvss.t680 sky130_fd_pr__nfet_g5v0d10v5 ad=0.3975 pd=3.53 as=0.21 ps=1.78 w=1.5 l=0.5
X69 a_6935_n11914# a_7313_n19314# avss.t386 sky130_fd_pr__res_xhigh_po_1p41 l=35
X70 a_n14989_n11914# a_n14611_n19314# avss.t385 sky130_fd_pr__res_xhigh_po_1p41 l=35
X71 a_n3649_n11914# a_n4027_n19314# avss.t384 sky130_fd_pr__res_xhigh_po_1p41 l=35
X72 dvdd.t258 vl sky130_fd_sc_hd__inv_4_3.Y dvdd.t257 sky130_fd_pr__pfet_01v8_hvt ad=0.26 pd=2.52 as=0.135 ps=1.27 w=1 l=0.15
X73 avdd.t593 a_n3795_n1142# a_n2588_n1478# avdd.t103 sky130_fd_pr__pfet_g5v0d10v5 ad=0.24375 pd=1.825 as=0.3975 ps=3.53 w=1.5 l=0.5
X74 sky130_fd_sc_hvl__inv_1_0.A a_n2571_7523# dvss.t661 dvss.t660 sky130_fd_pr__nfet_g5v0d10v5 ad=0.19875 pd=2.03 as=0.121875 ps=1.075 w=0.75 l=0.5
X75 dvss.t769 sky130_fd_sc_hd__inv_4_3.Y dcomp.t31 dvss.t768 sky130_fd_pr__nfet_01v8 ad=0.08775 pd=0.92 as=0.08775 ps=0.92 w=0.65 l=0.15
X76 comparator_0.vnn.t20 comparator_0.vpp.t47 avdd.t392 avdd.t86 sky130_fd_pr__pfet_g5v0d10v5 ad=0.145 pd=1.29 as=0.145 ps=1.29 w=1 l=8
X77 a_n4405_n11914# a_n4027_n19314# avss.t381 sky130_fd_pr__res_xhigh_po_1p41 l=35
X78 ibias_gen_0.vp1.t14 ibias_gen_0.vp1.t13 avdd.t57 avdd.t56 sky130_fd_pr__pfet_g5v0d10v5 ad=0.725 pd=5.29 as=0.725 ps=5.29 w=5 l=4
X79 a_n15529_n2223# ibias_gen_0.isrc_sel_b.t4 ibias_gen_0.vn1.t9 avdd.t49 sky130_fd_pr__pfet_g5v0d10v5 ad=0.725 pd=5.29 as=0.725 ps=5.29 w=5 l=0.6
X80 a_n1683_n1142# a_n1783_n1230# dvss.t659 dvss.t658 sky130_fd_pr__nfet_g5v0d10v5 ad=0.21 pd=1.78 as=0.3975 ps=3.53 w=1.5 l=0.5
X81 dvss.t270 dvss.t268 a_2441_n1230# dvss.t269 sky130_fd_pr__nfet_01v8 ad=0.1176 pd=1.12 as=0.2478 ps=2.27 w=0.84 l=0.15
X82 comparator_0.vpp.t44 comparator_0.vnn.t49 avdd.t126 avdd.t31 sky130_fd_pr__pfet_g5v0d10v5 ad=0.145 pd=1.29 as=0.145 ps=1.29 w=1 l=8
X83 avdd.t584 a_n3102_n2256# a_n3795_n1142# avdd.t583 sky130_fd_pr__pfet_g5v0d10v5 ad=0.2142 pd=1.99 as=0.2142 ps=1.99 w=0.42 l=1
X84 avdd.t643 a_6765_n2876# a_7458_n3990# avdd.t642 sky130_fd_pr__pfet_g5v0d10v5 ad=0.1113 pd=1.37 as=0.1365 ps=1.49 w=0.42 l=1
X85 a_2809_n3946# a_2441_n2964# dvdd.t246 dvdd.t245 sky130_fd_pr__pfet_01v8_hvt ad=0.2478 pd=2.27 as=0.1176 ps=1.12 w=0.84 l=0.15
X86 dvdd.t286 sky130_fd_sc_hd__inv_4_4.Y por.t13 dvdd.t285 sky130_fd_pr__pfet_01v8_hvt ad=0.135 pd=1.27 as=0.135 ps=1.27 w=1 l=0.15
X87 dvdd.t131 sky130_fd_sc_hd__inv_4_1.Y porb.t6 dvdd.t130 sky130_fd_pr__pfet_01v8_hvt ad=0.135 pd=1.27 as=0.135 ps=1.27 w=1 l=0.15
X88 dvss.t52 por_unbuf.t0 sky130_fd_sc_hd__inv_4_1.A dvss.t51 sky130_fd_pr__nfet_01v8 ad=0.08775 pd=0.92 as=0.08775 ps=0.92 w=0.65 l=0.15
X89 osc_ck.t0 osc_ena.t0 rc_osc_0.vr dvss.t67 sky130_fd_pr__nfet_01v8 ad=0.15 pd=1.3 as=0.1475 ps=1.295 w=1 l=0.18
X90 avdd.t131 comparator_0.vnn.t45 comparator_0.vnn.t46 avdd.t105 sky130_fd_pr__pfet_g5v0d10v5 ad=0.145 pd=1.29 as=0.145 ps=1.29 w=1 l=8
X91 rstring_mux_0.otrip_decoded_b_avdd[6] rstring_mux_0.otrip_decoded_avdd[6] avdd.t582 avdd.t581 sky130_fd_pr__pfet_g5v0d10v5 ad=0.4275 pd=3.57 as=0.4275 ps=3.57 w=1.5 l=0.5
X92 a_n10279_n24223# a_12321_n24601# dvss.t609 sky130_fd_pr__res_xhigh_po_1p41 l=111
X93 dcomp.t14 sky130_fd_sc_hd__inv_4_3.Y dvdd.t323 dvdd.t322 sky130_fd_pr__pfet_01v8_hvt ad=0.135 pd=1.27 as=0.135 ps=1.27 w=1 l=0.15
X94 dvdd.t99 sky130_fd_sc_hd__inv_4_0.Y pwup_filt.t14 dvdd.t98 sky130_fd_pr__pfet_01v8_hvt ad=0.135 pd=1.27 as=0.135 ps=1.27 w=1 l=0.15
X95 rstring_mux_0.vtrip3.t9 rstring_mux_0.vtrip_decoded_b_avdd[3] comparator_0.vinn.t43 avdd.t578 sky130_fd_pr__pfet_g5v0d10v5 ad=0.725 pd=5.29 as=0.725 ps=5.29 w=5 l=0.6
X96 dvdd.t69 rc_osc_0.m rc_osc_0.n.t2 dvdd.t68 sky130_fd_pr__pfet_01v8 ad=0.145 pd=1.29 as=0.145 ps=1.29 w=1 l=0.5
X97 avss.t73 comparator_1.vn.t5 comparator_1.vn.t6 avss.t72 sky130_fd_pr__nfet_g5v0d10v5 ad=0.145 pd=1.29 as=0.145 ps=1.29 w=1 l=8
X98 ibias_gen_0.vn0.t10 vbg_1v2.t1 ibias_gen_0.vstart.t10 avss.t47 sky130_fd_pr__nfet_g5v0d10v5 ad=0.725 pd=5.29 as=0.725 ps=5.29 w=5 l=0.6
X99 rc_osc_0.m rc_osc_0.in dvdd.t236 dvdd.t235 sky130_fd_pr__pfet_01v8 ad=0.145 pd=1.29 as=0.145 ps=1.29 w=1 l=0.5
X100 ibias_gen_0.vr.t2 a_n20404_n10337# avss.t10 sky130_fd_pr__res_xhigh_po_1p41 l=35
X101 avdd.t576 a_n5907_n1142# a_n4700_n1478# avdd.t572 sky130_fd_pr__pfet_g5v0d10v5 ad=0.24375 pd=1.825 as=0.3975 ps=3.53 w=1.5 l=0.5
X102 comparator_1.ena_b rstring_mux_0.ena.t3 avdd.t400 avdd.t399 sky130_fd_pr__pfet_g5v0d10v5 ad=0.29 pd=2.58 as=0.29 ps=2.58 w=1 l=1
X103 dvss.t229 sky130_fd_sc_hd__inv_4_1.Y porb.t31 dvss.t228 sky130_fd_pr__nfet_01v8 ad=0.08775 pd=0.92 as=0.08775 ps=0.92 w=0.65 l=0.15
X104 a_n13487_9395# a_n13109_1995# avss.t370 sky130_fd_pr__res_xhigh_po_1p41 l=35
X105 a_n3795_n1142# a_n3895_n1230# dvss.t331 dvss.t330 sky130_fd_pr__nfet_g5v0d10v5 ad=0.21 pd=1.78 as=0.3975 ps=3.53 w=1.5 l=0.5
X106 a_2541_n1142# a_2441_n1230# dvss.t646 dvss.t353 sky130_fd_pr__nfet_g5v0d10v5 ad=0.3975 pd=3.53 as=0.21 ps=1.78 w=1.5 l=0.5
X107 a_7033_n3946# a_6665_n2964# dvdd.t194 dvdd.t193 sky130_fd_pr__pfet_01v8_hvt ad=0.2478 pd=2.27 as=0.1176 ps=1.12 w=0.84 l=0.15
X108 sky130_fd_sc_hd__inv_4_1.Y sky130_fd_sc_hd__inv_4_1.A dvss.t617 dvss.t616 sky130_fd_pr__nfet_01v8 ad=0.08775 pd=0.92 as=0.169 ps=1.82 w=0.65 l=0.15
X109 schmitt_trigger_0.m.t3 schmitt_trigger_0.out.t4 dvdd.t178 dvdd.t177 sky130_fd_pr__pfet_01v8 ad=0.145 pd=1.29 as=0.145 ps=1.29 w=1 l=0.5
X110 a_n14243_9395# a_n14621_1995# avss.t318 sky130_fd_pr__res_xhigh_po_1p41 l=35
X111 dvdd.t141 dvdd.t139 schmitt_trigger_0.m.t0 dvdd.t140 sky130_fd_pr__pfet_01v8 ad=0.145 pd=1.29 as=0.145 ps=1.29 w=1 l=0.5
X112 dvdd.t188 otrip_decoded[6].t0 a_n1783_n2964# dvdd.t187 sky130_fd_pr__pfet_01v8_hvt ad=0.1176 pd=1.12 as=0.2478 ps=2.27 w=0.84 l=0.15
X113 avss.t102 comparator_1.n1.t6 dcomp3v3 avss.t101 sky130_fd_pr__nfet_g5v0d10v5 ad=0.145 pd=1.29 as=0.145 ps=1.29 w=1 l=0.6
X114 dvss.t334 a_8877_n1142# a_10084_n1478# dvss.t318 sky130_fd_pr__nfet_g5v0d10v5 ad=0.121875 pd=1.075 as=0.19875 ps=2.03 w=0.75 l=0.5
X115 rstring_mux_0.vtrip_decoded_avdd[5].t0 a_5860_n1478# avdd.t467 avdd.t466 sky130_fd_pr__pfet_g5v0d10v5 ad=0.3975 pd=3.53 as=0.24375 ps=1.825 w=1.5 l=0.5
X116 rstring_mux_0.otrip_decoded_b_avdd[1] rstring_mux_0.otrip_decoded_avdd[1] avdd.t657 avdd.t656 sky130_fd_pr__pfet_g5v0d10v5 ad=0.4275 pd=3.57 as=0.4275 ps=3.57 w=1.5 l=0.5
X117 a_n7429_n11914# a_n7807_n19314# avss.t319 sky130_fd_pr__res_xhigh_po_1p41 l=35
X118 dvss.t735 a_2541_n2876# a_3748_n3212# dvss.t734 sky130_fd_pr__nfet_g5v0d10v5 ad=0.121875 pd=1.075 as=0.19875 ps=2.03 w=0.75 l=0.5
X119 comparator_0.vnn.t21 comparator_0.vpp.t48 avdd.t393 avdd.t86 sky130_fd_pr__pfet_g5v0d10v5 ad=0.145 pd=1.29 as=0.145 ps=1.29 w=1 l=8
X120 avdd.t482 a_n8019_n1142# a_n6812_n1478# avdd.t478 sky130_fd_pr__pfet_g5v0d10v5 ad=0.24375 pd=1.825 as=0.3975 ps=3.53 w=1.5 l=0.5
X121 dcomp3v3uv comparator_0.n1.t4 avdd.t404 avdd.t403 sky130_fd_pr__pfet_g5v0d10v5 ad=0.145 pd=1.29 as=0.145 ps=1.29 w=1 l=0.6
X122 comparator_0.vinn.t31 rstring_mux_0.vtrip_decoded_b_avdd[5] rstring_mux_0.vtrip5.t6 avdd.t475 sky130_fd_pr__pfet_g5v0d10v5 ad=0.725 pd=5.29 as=0.725 ps=5.29 w=5 l=0.6
X123 rstring_mux_0.otrip_decoded_avdd[5] a_n2588_n1478# dvss.t113 dvss.t112 sky130_fd_pr__nfet_g5v0d10v5 ad=0.19875 pd=2.03 as=0.121875 ps=1.075 w=0.75 l=0.5
X124 avdd.t67 comparator_1.vpp.t14 comparator_1.vpp.t15 avdd.t66 sky130_fd_pr__pfet_g5v0d10v5 ad=0.145 pd=1.29 as=0.145 ps=1.29 w=1 l=8
X125 a_4653_n1142# a_4553_n1230# dvss.t360 dvss.t353 sky130_fd_pr__nfet_g5v0d10v5 ad=0.3975 pd=3.53 as=0.21 ps=1.78 w=1.5 l=0.5
X126 a_9145_n3946# a_8777_n2964# dvdd.t202 dvdd.t201 sky130_fd_pr__pfet_01v8_hvt ad=0.2478 pd=2.27 as=0.1176 ps=1.12 w=0.84 l=0.15
X127 avdd.t130 comparator_0.vnn.t43 comparator_0.vnn.t44 avdd.t105 sky130_fd_pr__pfet_g5v0d10v5 ad=0.145 pd=1.29 as=0.145 ps=1.29 w=1 l=8
X128 comparator_1.vt.t52 vbg_1v2.t2 comparator_1.vnn comparator_1.vt.t2 sky130_fd_pr__nfet_g5v0d10v5 ad=0.145 pd=1.29 as=0.145 ps=1.29 w=1 l=8
X129 a_5423_n11914# a_5801_n19314# avss.t320 sky130_fd_pr__res_xhigh_po_1p41 l=35
X130 avdd.t340 comparator_1.vnn.t49 comparator_1.vpp.t44 avdd.t66 sky130_fd_pr__pfet_g5v0d10v5 ad=0.145 pd=1.29 as=0.145 ps=1.29 w=1 l=8
X131 a_n3085_6745# a_n3510_6789# dvss.t370 dvss.t369 sky130_fd_pr__nfet_g5v0d10v5 ad=0.3975 pd=3.53 as=0.21 ps=1.78 w=1.5 l=0.5
X132 comparator_0.vnn.t6 comparator_0.vinn.t50 comparator_0.vt.t17 comparator_0.vt.t2 sky130_fd_pr__nfet_g5v0d10v5 ad=0.145 pd=1.29 as=0.145 ps=1.29 w=1 l=8
X133 dvss.t54 por_unbuf.t1 sky130_fd_sc_hd__inv_4_4.Y dvss.t53 sky130_fd_pr__nfet_01v8 ad=0.08775 pd=0.92 as=0.08775 ps=0.92 w=0.65 l=0.15
X134 dvdd.t172 otrip_decoded[4].t0 a_n3895_n2964# dvdd.t171 sky130_fd_pr__pfet_01v8_hvt ad=0.1176 pd=1.12 as=0.2478 ps=2.27 w=0.84 l=0.15
X135 a_n11975_9395# a_n11597_1995# avss.t321 sky130_fd_pr__res_xhigh_po_1p41 l=35
X136 dvss.t195 sky130_fd_sc_hd__inv_4_0.Y pwup_filt.t30 dvss.t194 sky130_fd_pr__nfet_01v8 ad=0.169 pd=1.82 as=0.08775 ps=0.92 w=0.65 l=0.15
X137 dvss.t267 dvss.t265 a_329_n1230# dvss.t266 sky130_fd_pr__nfet_01v8 ad=0.1176 pd=1.12 as=0.2478 ps=2.27 w=0.84 l=0.15
X138 a_697_n3946# a_329_n2964# dvdd.t204 dvdd.t203 sky130_fd_pr__pfet_01v8_hvt ad=0.2478 pd=2.27 as=0.1176 ps=1.12 w=0.84 l=0.15
X139 avdd.t309 avdd.t307 avdd.t308 avdd.t141 sky130_fd_pr__pfet_g5v0d10v5 ad=0.29 pd=2.58 as=0 ps=0 w=1 l=8
X140 comparator_0.vpp.t16 comparator_0.vpp.t15 avdd.t69 avdd.t31 sky130_fd_pr__pfet_g5v0d10v5 ad=0.145 pd=1.29 as=0.145 ps=1.29 w=1 l=8
X141 rstring_mux_0.vtrip1.t3 rstring_mux_0.vtrip2.t1 avss.t322 sky130_fd_pr__res_xhigh_po_1p41 l=35
X142 dvss.t264 dvss.t262 osc_ck.t5 dvss.t263 sky130_fd_pr__nfet_01v8 ad=0.1475 pd=1.295 as=0.15 ps=1.3 w=1 l=0.18
X143 comparator_1.vm.t5 comparator_1.vm.t4 avss.t257 avss.t70 sky130_fd_pr__nfet_g5v0d10v5 ad=0.145 pd=1.29 as=0.145 ps=1.29 w=1 l=8
X144 dvdd.t284 sky130_fd_sc_hd__inv_4_4.Y por.t12 dvdd.t283 sky130_fd_pr__pfet_01v8_hvt ad=0.135 pd=1.27 as=0.135 ps=1.27 w=1 l=0.15
X145 avdd.t496 a_429_n1142# a_1636_n1478# avdd.t492 sky130_fd_pr__pfet_g5v0d10v5 ad=0.24375 pd=1.825 as=0.3975 ps=3.53 w=1.5 l=0.5
X146 dvss.t685 a_4653_n2876# a_5860_n3212# dvss.t684 sky130_fd_pr__nfet_g5v0d10v5 ad=0.121875 pd=1.075 as=0.19875 ps=2.03 w=0.75 l=0.5
X147 avdd.t631 rstring_mux_0.ena_b rstring_mux_0.vtop.t16 avdd.t630 sky130_fd_pr__pfet_g5v0d10v5 ad=0.725 pd=5.29 as=0.725 ps=5.29 w=5 l=0.6
X148 avdd.t414 comparator_0.n0.t5 comparator_0.n1.t3 avdd.t413 sky130_fd_pr__pfet_g5v0d10v5 ad=0.145 pd=1.29 as=0.145 ps=1.29 w=1 l=0.6
X149 avdd.t127 comparator_0.vnn.t50 comparator_0.vpp.t43 avdd.t26 sky130_fd_pr__pfet_g5v0d10v5 ad=0.145 pd=1.29 as=0.145 ps=1.29 w=1 l=8
X150 comparator_1.vpp.t43 comparator_1.vnn.t50 avdd.t339 avdd.t318 sky130_fd_pr__pfet_g5v0d10v5 ad=0.145 pd=1.29 as=0.145 ps=1.29 w=1 l=8
X151 dvdd.t182 schmitt_trigger_0.out.t5 schmitt_trigger_0.m.t5 dvdd.t181 sky130_fd_pr__pfet_01v8 ad=0.145 pd=1.29 as=0.145 ps=1.29 w=1 l=0.5
X152 ibias_gen_0.vp0.t9 ibias_gen_0.vp0.t8 avdd.t46 avdd.t45 sky130_fd_pr__pfet_g5v0d10v5 ad=0.725 pd=5.29 as=0.725 ps=5.29 w=5 l=4
X153 por.t30 sky130_fd_sc_hd__inv_4_4.Y dvss.t729 dvss.t728 sky130_fd_pr__nfet_01v8 ad=0.08775 pd=0.92 as=0.08775 ps=0.92 w=0.65 l=0.15
X154 rstring_mux_0.otrip_decoded_avdd[3] a_n4700_n1478# dvss.t596 dvss.t595 sky130_fd_pr__nfet_g5v0d10v5 ad=0.19875 pd=2.03 as=0.121875 ps=1.075 w=0.75 l=0.5
X155 avdd.t306 avdd.t305 avdd.t306 avdd.t160 sky130_fd_pr__pfet_g5v0d10v5 ad=0.145 pd=1.29 as=0 ps=0 w=1 l=8
X156 a_6765_n1142# a_6665_n1230# dvss.t435 dvss.t353 sky130_fd_pr__nfet_g5v0d10v5 ad=0.3975 pd=3.53 as=0.21 ps=1.78 w=1.5 l=0.5
X157 rstring_mux_0.vtop.t15 rstring_mux_0.ena_b avdd.t629 avdd.t628 sky130_fd_pr__pfet_g5v0d10v5 ad=0.725 pd=5.29 as=0.725 ps=5.29 w=5 l=0.6
X158 ibias_gen_0.ena_b.t1 rstring_mux_0.ena.t4 avss.t249 avss.t248 sky130_fd_pr__nfet_g5v0d10v5 ad=0.725 pd=5.29 as=1.45 ps=10.58 w=5 l=1
X159 rstring_mux_0.otrip_decoded_avdd[2] a_n4700_n3212# avdd.t498 avdd.t4 sky130_fd_pr__pfet_g5v0d10v5 ad=0.3975 pd=3.53 as=0.24375 ps=1.825 w=1.5 l=0.5
X160 dvdd.t37 otrip_decoded[2].t0 a_n6007_n2964# dvdd.t36 sky130_fd_pr__pfet_01v8_hvt ad=0.1176 pd=1.12 as=0.2478 ps=2.27 w=0.84 l=0.15
X161 vin rstring_mux_0.otrip_decoded_b_avdd[6] rstring_mux_0.vtrip6.t7 avdd.t580 sky130_fd_pr__pfet_g5v0d10v5 ad=0.725 pd=5.29 as=0.725 ps=5.29 w=5 l=0.6
X162 avdd.t385 comparator_1.vpp.t12 comparator_1.vpp.t13 avdd.t66 sky130_fd_pr__pfet_g5v0d10v5 ad=0.145 pd=1.29 as=0.145 ps=1.29 w=1 l=8
X163 porb_h.t30 sky130_fd_sc_hvl__inv_16_0.A.t10 avss.t38 avss.t37 sky130_fd_pr__nfet_g5v0d10v5 ad=0.105 pd=1.03 as=0.105 ps=1.03 w=0.75 l=0.5
X164 avss.t233 avss.t231 avss.t232 avss.t152 sky130_fd_pr__nfet_g5v0d10v5 ad=1.45 pd=10.58 as=0 ps=0 w=5 l=8
X165 dvss.t193 sky130_fd_sc_hd__inv_4_0.Y pwup_filt.t29 dvss.t192 sky130_fd_pr__nfet_01v8 ad=0.08775 pd=0.92 as=0.08775 ps=0.92 w=0.65 l=0.15
X166 a_10873_n2760# a_10514_n2760# dvss.t443 dvss.t440 sky130_fd_pr__nfet_g5v0d10v5 ad=0.19875 pd=2.03 as=0.105 ps=1.03 w=0.75 l=0.5
X167 a_887_n11914# a_509_n19314# avss.t327 sky130_fd_pr__res_xhigh_po_1p41 l=35
X168 comparator_0.vnn.t22 comparator_0.vpp.t49 avdd.t394 avdd.t86 sky130_fd_pr__pfet_g5v0d10v5 ad=0.145 pd=1.29 as=0.145 ps=1.29 w=1 l=8
X169 avdd.t118 comparator_0.vnn.t41 comparator_0.vnn.t42 avdd.t105 sky130_fd_pr__pfet_g5v0d10v5 ad=0.145 pd=1.29 as=0.145 ps=1.29 w=1 l=8
X170 ibias_gen_0.vp.t0 rstring_mux_0.ena.t5 avdd.t449 avdd.t448 sky130_fd_pr__pfet_g5v0d10v5 ad=1.45 pd=10.58 as=0.725 ps=5.29 w=5 l=2
X171 avdd.t506 a_1122_n2256# a_429_n1142# avdd.t505 sky130_fd_pr__pfet_g5v0d10v5 ad=0.2142 pd=1.99 as=0.2142 ps=1.99 w=0.42 l=1
X172 osc_ck.t6 rc_osc_0.n.t6 dvss.t305 dvss.t304 sky130_fd_pr__nfet_01v8 ad=0.29 pd=2.58 as=0.145 ps=1.29 w=1 l=0.5
X173 avdd.t627 rstring_mux_0.ena_b rstring_mux_0.vtop.t14 avdd.t626 sky130_fd_pr__pfet_g5v0d10v5 ad=0.725 pd=5.29 as=0.725 ps=5.29 w=5 l=0.6
X174 dvdd.t282 sky130_fd_sc_hd__inv_4_4.Y por.t11 dvdd.t281 sky130_fd_pr__pfet_01v8_hvt ad=0.135 pd=1.27 as=0.135 ps=1.27 w=1 l=0.15
X175 comparator_0.vt.t55 vbg_1v2.t3 comparator_0.vpp.t32 comparator_0.vt.t41 sky130_fd_pr__nfet_g5v0d10v5 ad=0.145 pd=1.29 as=0.145 ps=1.29 w=1 l=8
X176 avdd.t17 ibias_gen_0.vp.t8 ibias_gen_0.ibias0.t3 avdd.t16 sky130_fd_pr__pfet_g5v0d10v5 ad=0.725 pd=5.29 as=0.725 ps=5.29 w=5 l=4
X177 dvss.t348 dcomp3v3uv a_10514_n2760# dvss.t347 sky130_fd_pr__nfet_g5v0d10v5 ad=0.178875 pd=1.26 as=0.1197 ps=1.41 w=0.42 l=0.5
X178 rstring_mux_0.vtrip_decoded_b_avdd[0] rstring_mux_0.vtrip_decoded_avdd[0] avss.t402 avss.t401 sky130_fd_pr__nfet_g5v0d10v5 ad=0.21375 pd=2.07 as=0.21375 ps=2.07 w=0.75 l=0.5
X179 comparator_1.n1.t0 comparator_1.n0.t5 avss.t91 avss.t90 sky130_fd_pr__nfet_g5v0d10v5 ad=0.145 pd=1.29 as=0.29 ps=2.58 w=1 l=0.6
X180 ibias_gen_0.vn0.t8 ibias_gen_0.vn0.t7 ibias_gen_0.ve.t4 avss.t96 sky130_fd_pr__nfet_g5v0d10v5 ad=0.725 pd=5.29 as=0.725 ps=5.29 w=5 l=4
X181 ibias_gen_0.vp.t6 ibias_gen_0.isrc_sel_b.t5 ibias_gen_0.vp0.t0 avss.t54 sky130_fd_pr__nfet_g5v0d10v5 ad=0.725 pd=5.29 as=0.725 ps=5.29 w=5 l=0.6
X182 avss.t93 comparator_0.vn.t7 comparator_0.vt.t1 avss.t92 sky130_fd_pr__nfet_g5v0d10v5 ad=0.145 pd=1.29 as=0.145 ps=1.29 w=1 l=8
X183 avdd.t304 avdd.t302 avdd.t303 avdd.t141 sky130_fd_pr__pfet_g5v0d10v5 ad=0.29 pd=2.58 as=0 ps=0 w=1 l=8
X184 comparator_0.vinn.t10 avdd.t300 vin avdd.t301 sky130_fd_pr__pfet_g5v0d10v5 ad=0.725 pd=5.29 as=0.725 ps=5.29 w=5 l=0.6
X185 avss.t40 sky130_fd_sc_hvl__inv_16_0.A.t11 porb_h.t29 avss.t39 sky130_fd_pr__nfet_g5v0d10v5 ad=0.105 pd=1.03 as=0.105 ps=1.03 w=0.75 l=0.5
X186 rstring_mux_0.vtop.t13 rstring_mux_0.ena_b avdd.t625 avdd.t624 sky130_fd_pr__pfet_g5v0d10v5 ad=0.725 pd=5.29 as=0.725 ps=5.29 w=5 l=0.6
X187 comparator_1.vpp.t42 comparator_1.vnn.t51 avdd.t338 avdd.t318 sky130_fd_pr__pfet_g5v0d10v5 ad=0.145 pd=1.29 as=0.145 ps=1.29 w=1 l=8
X188 ibias_gen_0.vp1.t8 ibias_gen_0.vn1.t10 avss.t293 avss.t63 sky130_fd_pr__nfet_g5v0d10v5 ad=0.725 pd=5.29 as=0.725 ps=5.29 w=5 l=8
X189 a_n5917_n11914# a_n6295_n19314# avss.t328 sky130_fd_pr__res_xhigh_po_1p41 l=35
X190 avdd.t128 comparator_0.vnn.t51 comparator_0.vpp.t42 avdd.t26 sky130_fd_pr__pfet_g5v0d10v5 ad=0.145 pd=1.29 as=0.145 ps=1.29 w=1 l=8
X191 a_n7751_n2212# a_n8119_n1230# dvss.t483 dvss.t482 sky130_fd_pr__nfet_01v8 ad=0.2478 pd=2.27 as=0.1176 ps=1.12 w=0.84 l=0.15
X192 rstring_mux_0.otrip_decoded_avdd[0] a_n6812_n3212# avdd.t511 avdd.t8 sky130_fd_pr__pfet_g5v0d10v5 ad=0.3975 pd=3.53 as=0.24375 ps=1.825 w=1.5 l=0.5
X193 rstring_mux_0.vtrip_decoded_b_avdd[4] rstring_mux_0.vtrip_decoded_avdd[4].t3 avss.t104 avss.t103 sky130_fd_pr__nfet_g5v0d10v5 ad=0.21375 pd=2.07 as=0.21375 ps=2.07 w=0.75 l=0.5
X194 dvss.t191 sky130_fd_sc_hd__inv_4_0.Y pwup_filt.t28 dvss.t190 sky130_fd_pr__nfet_01v8 ad=0.08775 pd=0.92 as=0.08775 ps=0.92 w=0.65 l=0.15
X195 dvss.t227 sky130_fd_sc_hd__inv_4_1.Y porb.t30 dvss.t226 sky130_fd_pr__nfet_01v8 ad=0.08775 pd=0.92 as=0.08775 ps=0.92 w=0.65 l=0.15
X196 dvdd.t170 otrip_decoded[0].t1 a_n8119_n2964# dvdd.t169 sky130_fd_pr__pfet_01v8_hvt ad=0.1176 pd=1.12 as=0.2478 ps=2.27 w=0.84 l=0.15
X197 vin rstring_mux_0.otrip_decoded_b_avdd[1] rstring_mux_0.vtrip1.t9 avdd.t659 sky130_fd_pr__pfet_g5v0d10v5 ad=0.725 pd=5.29 as=0.725 ps=5.29 w=5 l=0.6
X198 rc_osc_0.in a_12321_n25357# dvss.t459 sky130_fd_pr__res_xhigh_po_1p41 l=111
X199 avdd.t72 sky130_fd_sc_hvl__inv_16_0.A.t12 porb_h.t14 avdd.t71 sky130_fd_pr__pfet_g5v0d10v5 ad=0.21 pd=1.78 as=0.21 ps=1.78 w=1.5 l=0.5
X200 dcomp3v3 comparator_1.n1.t7 avdd.t358 avdd.t357 sky130_fd_pr__pfet_g5v0d10v5 ad=0.145 pd=1.29 as=0.145 ps=1.29 w=1 l=0.6
X201 sky130_fd_sc_hd__inv_4_1.Y sky130_fd_sc_hd__inv_4_1.A dvss.t615 dvss.t614 sky130_fd_pr__nfet_01v8 ad=0.08775 pd=0.92 as=0.08775 ps=0.92 w=0.65 l=0.15
X202 rstring_mux_0.vtrip_decoded_avdd[1] a_1636_n1478# avdd.t493 avdd.t492 sky130_fd_pr__pfet_g5v0d10v5 ad=0.3975 pd=3.53 as=0.24375 ps=1.825 w=1.5 l=0.5
X203 avdd.t502 a_6765_n1142# a_7972_n1478# avdd.t501 sky130_fd_pr__pfet_g5v0d10v5 ad=0.24375 pd=1.825 as=0.3975 ps=3.53 w=1.5 l=0.5
X204 avdd.t513 a_3234_n2256# a_2541_n1142# avdd.t512 sky130_fd_pr__pfet_g5v0d10v5 ad=0.2142 pd=1.99 as=0.2142 ps=1.99 w=0.42 l=1
X205 a_n8195_9395# schmitt_trigger_0.in.t0 avss.t333 sky130_fd_pr__res_xhigh_po_1p41 l=35
X206 rc_osc_0.vr dvdd.t137 rc_osc_0.ena_b dvdd.t138 sky130_fd_pr__pfet_01v8 ad=0.1475 pd=1.295 as=0.145 ps=1.29 w=1 l=0.5
X207 vin rstring_mux_0.otrip_decoded_avdd[0] rstring_mux_0.vtrip0.t5 avss.t332 sky130_fd_pr__nfet_g5v0d10v5 ad=0.725 pd=5.29 as=0.725 ps=5.29 w=5 l=0.6
X208 comparator_0.vnn.t29 comparator_0.vpp.t50 avdd.t421 avdd.t86 sky130_fd_pr__pfet_g5v0d10v5 ad=0.145 pd=1.29 as=0.145 ps=1.29 w=1 l=8
X209 a_n8951_9395# a_n9329_1995# avss.t338 sky130_fd_pr__res_xhigh_po_1p41 l=35
X210 avss.t230 avss.t228 avss.t229 avss.t152 sky130_fd_pr__nfet_g5v0d10v5 ad=1.45 pd=10.58 as=0 ps=0 w=5 l=8
X211 dcomp.t13 sky130_fd_sc_hd__inv_4_3.Y dvdd.t321 dvdd.t320 sky130_fd_pr__pfet_01v8_hvt ad=0.135 pd=1.27 as=0.135 ps=1.27 w=1 l=0.15
X212 vin avdd.t298 vin avdd.t299 sky130_fd_pr__pfet_g5v0d10v5 ad=0.725 pd=5.29 as=0 ps=0 w=5 l=0.6
X213 avdd.t337 comparator_1.vnn.t19 comparator_1.vnn.t20 avdd.t24 sky130_fd_pr__pfet_g5v0d10v5 ad=0.145 pd=1.29 as=0.145 ps=1.29 w=1 l=8
X214 dvdd.t162 dvss.t770 a_2441_n1230# dvdd.t161 sky130_fd_pr__pfet_01v8_hvt ad=0.1176 pd=1.12 as=0.2478 ps=2.27 w=0.84 l=0.15
X215 rstring_mux_0.otrip_decoded_b_avdd[4] rstring_mux_0.otrip_decoded_avdd[4] avss.t346 avss.t345 sky130_fd_pr__nfet_g5v0d10v5 ad=0.21375 pd=2.07 as=0.21375 ps=2.07 w=0.75 l=0.5
X216 avdd.t297 avdd.t296 avdd.t297 avdd.t160 sky130_fd_pr__pfet_g5v0d10v5 ad=0.145 pd=1.29 as=0 ps=0 w=1 l=8
X217 comparator_0.vinn.t9 avdd.t294 comparator_0.vinn.t9 avdd.t295 sky130_fd_pr__pfet_g5v0d10v5 ad=0.725 pd=5.29 as=0 ps=0 w=5 l=0.6
X218 avdd.t38 ibias_gen_0.vp.t9 itest.t0 avdd.t37 sky130_fd_pr__pfet_g5v0d10v5 ad=0.725 pd=5.29 as=0.725 ps=5.29 w=5 l=4
X219 vin rstring_mux_0.otrip_decoded_avdd[4] rstring_mux_0.vtrip4.t8 avss.t344 sky130_fd_pr__nfet_g5v0d10v5 ad=0.725 pd=5.29 as=0.725 ps=5.29 w=5 l=0.6
X220 avdd.t384 comparator_1.vpp.t10 comparator_1.vpp.t11 avdd.t66 sky130_fd_pr__pfet_g5v0d10v5 ad=0.145 pd=1.29 as=0.145 ps=1.29 w=1 l=8
X221 porb_h.t13 sky130_fd_sc_hvl__inv_16_0.A.t13 avdd.t74 avdd.t73 sky130_fd_pr__pfet_g5v0d10v5 ad=0.21 pd=1.78 as=0.21 ps=1.78 w=1.5 l=0.5
X222 ibias_gen_0.vstart.t9 vbg_1v2.t4 ibias_gen_0.vn0.t9 avss.t47 sky130_fd_pr__nfet_g5v0d10v5 ad=0.725 pd=5.29 as=0.725 ps=5.29 w=5 l=0.6
X223 ibias_gen_0.isrc_sel_b.t1 avss.t226 ibias_gen_0.ena_b.t3 avss.t227 sky130_fd_pr__nfet_g5v0d10v5 ad=0.725 pd=5.29 as=0.725 ps=5.29 w=5 l=1
X224 a_n1683_n1142# a_n1783_n1230# dvss.t657 dvss.t656 sky130_fd_pr__nfet_g5v0d10v5 ad=0.21 pd=1.78 as=0.21 ps=1.78 w=1.5 l=0.5
X225 comparator_1.vn.t0 rstring_mux_0.ena.t6 ibias_gen_0.ibias0.t0 avss.t314 sky130_fd_pr__nfet_g5v0d10v5 ad=0.29 pd=2.58 as=0.29 ps=2.58 w=1 l=1