*SPEF "ieee 1481-1999"
*DESIGN "por_dig"
*DATE "21:05:57 Friday April 12, 2024"
*VENDOR "The OpenROAD Project"
*PROGRAM "OpenROAD"
*VERSION "0889970d1790a2617e69f253221b8bd7626e51dc"
*DESIGN_FLOW "NAME_SCOPE LOCAL" "PIN_CAP NONE"
*DIVIDER /
*DELIMITER :
*BUS_DELIMITER []
*T_UNIT 1 NS
*C_UNIT 1 PF
*R_UNIT 1 OHM
*L_UNIT 1 HENRY

*NAME_MAP
*3 force_dis_rc_osc
*4 force_ena_rc_osc
*5 force_pdn
*6 force_pdnb
*7 force_short_oneshot
*8 osc_ck
*9 osc_ena
*10 otrip[0]
*11 otrip[1]
*12 otrip[2]
*13 otrip_decoded[0]
*14 otrip_decoded[1]
*15 otrip_decoded[2]
*16 otrip_decoded[3]
*17 otrip_decoded[4]
*18 otrip_decoded[5]
*19 otrip_decoded[6]
*20 otrip_decoded[7]
*21 por_timed_out
*22 por_unbuf
*23 pwup_filt
*24 startup_timed_out
*25 _000_
*26 _001_
*27 _002_
*28 _003_
*29 _004_
*30 _005_
*31 _006_
*32 _007_
*33 _008_
*34 _009_
*35 _010_
*36 _011_
*37 _012_
*38 _013_
*39 _014_
*40 _015_
*41 _016_
*42 _017_
*43 _018_
*44 _019_
*45 _020_
*46 _021_
*47 _022_
*48 _023_
*49 _024_
*50 _025_
*51 _026_
*52 _027_
*53 _028_
*54 _029_
*55 _030_
*56 _031_
*57 _032_
*58 _033_
*59 _034_
*60 _035_
*61 _036_
*62 _037_
*63 _038_
*64 _039_
*65 _040_
*66 _041_
*67 _042_
*68 _043_
*69 _044_
*70 _045_
*71 _046_
*72 _047_
*73 _048_
*74 _049_
*75 _050_
*76 _051_
*77 _052_
*78 _053_
*79 clknet_0_osc_ck
*80 clknet_1_0__leaf_osc_ck
*81 clknet_1_1__leaf_osc_ck
*82 cnt_por\[0\]
*83 cnt_por\[10\]
*84 cnt_por\[1\]
*85 cnt_por\[2\]
*86 cnt_por\[3\]
*87 cnt_por\[4\]
*88 cnt_por\[5\]
*89 cnt_por\[6\]
*90 cnt_por\[7\]
*91 cnt_por\[8\]
*92 cnt_por\[9\]
*93 cnt_rsb
*94 cnt_rsb_stg1
*95 cnt_st\[0\]
*96 cnt_st\[1\]
*97 cnt_st\[2\]
*98 cnt_st\[3\]
*99 cnt_st\[4\]
*100 net1
*101 net10
*102 net11
*103 net12
*104 net13
*105 net14
*106 net15
*107 net16
*108 net17
*109 net18
*110 net19
*111 net2
*112 net20
*113 net21
*114 net22
*115 net23
*116 net24
*117 net25
*118 net26
*119 net27
*120 net28
*121 net29
*122 net3
*123 net30
*124 net31
*125 net32
*126 net33
*127 net34
*128 net4
*129 net5
*130 net6
*131 net7
*132 net8
*133 net9
*134 FILLER_0_0_20
*135 FILLER_0_0_3
*136 FILLER_0_0_33
*137 FILLER_0_0_48
*138 FILLER_0_0_57
*139 FILLER_0_0_63
*140 FILLER_0_0_70
*141 FILLER_0_0_77
*142 FILLER_0_0_85
*143 FILLER_0_0_9
*144 FILLER_0_0_97
*145 FILLER_0_10_42
*146 FILLER_0_10_83
*147 FILLER_0_11_10
*148 FILLER_0_11_32
*149 FILLER_0_11_47
*150 FILLER_0_11_55
*151 FILLER_0_11_6
*152 FILLER_0_11_61
*153 FILLER_0_11_94
*154 FILLER_0_12_15
*155 FILLER_0_12_27
*156 FILLER_0_12_29
*157 FILLER_0_12_3
*158 FILLER_0_12_33
*159 FILLER_0_12_39
*160 FILLER_0_12_68
*161 FILLER_0_12_80
*162 FILLER_0_12_93
*163 FILLER_0_12_97
*164 FILLER_0_13_15
*165 FILLER_0_13_3
*166 FILLER_0_13_38
*167 FILLER_0_13_46
*168 FILLER_0_13_78
*169 FILLER_0_13_90
*170 FILLER_0_14_15
*171 FILLER_0_14_29
*172 FILLER_0_14_3
*173 FILLER_0_14_71
*174 FILLER_0_14_83
*175 FILLER_0_14_85
*176 FILLER_0_14_97
*177 FILLER_0_15_15
*178 FILLER_0_15_3
*179 FILLER_0_15_45
*180 FILLER_0_15_54
*181 FILLER_0_15_61
*182 FILLER_0_15_73
*183 FILLER_0_15_85
*184 FILLER_0_15_97
*185 FILLER_0_16_15
*186 FILLER_0_16_27
*187 FILLER_0_16_29
*188 FILLER_0_16_3
*189 FILLER_0_16_36
*190 FILLER_0_16_48
*191 FILLER_0_16_55
*192 FILLER_0_16_61
*193 FILLER_0_16_73
*194 FILLER_0_16_81
*195 FILLER_0_16_85
*196 FILLER_0_16_97
*197 FILLER_0_1_10
*198 FILLER_0_1_16
*199 FILLER_0_1_21
*200 FILLER_0_1_28
*201 FILLER_0_1_41
*202 FILLER_0_1_6
*203 FILLER_0_1_64
*204 FILLER_0_1_76
*205 FILLER_0_1_88
*206 FILLER_0_1_96
*207 FILLER_0_2_19
*208 FILLER_0_2_27
*209 FILLER_0_2_29
*210 FILLER_0_2_37
*211 FILLER_0_2_46
*212 FILLER_0_2_57
*213 FILLER_0_2_69
*214 FILLER_0_2_7
*215 FILLER_0_2_81
*216 FILLER_0_2_85
*217 FILLER_0_2_97
*218 FILLER_0_3_10
*219 FILLER_0_3_22
*220 FILLER_0_3_52
*221 FILLER_0_3_61
*222 FILLER_0_3_73
*223 FILLER_0_3_85
*224 FILLER_0_3_97
*225 FILLER_0_4_13
*226 FILLER_0_4_25
*227 FILLER_0_4_29
*228 FILLER_0_4_3
*229 FILLER_0_4_33
*230 FILLER_0_4_62
*231 FILLER_0_4_85
*232 FILLER_0_4_97
*233 FILLER_0_5_3
*234 FILLER_0_5_52
*235 FILLER_0_5_57
*236 FILLER_0_5_84
*237 FILLER_0_5_90
*238 FILLER_0_5_96
*239 FILLER_0_6_23
*240 FILLER_0_6_97
*241 FILLER_0_7_23
*242 FILLER_0_7_55
*243 FILLER_0_7_65
*244 FILLER_0_7_77
*245 FILLER_0_8_27
*246 FILLER_0_8_66
*247 FILLER_0_8_78
*248 FILLER_0_8_96
*249 FILLER_0_9_13
*250 FILLER_0_9_3
*251 FILLER_0_9_55
*252 FILLER_0_9_61
*253 FILLER_0_9_83
*254 FILLER_0_9_96
*255 PHY_EDGE_ROW_0_Left_17
*256 PHY_EDGE_ROW_0_Right_0
*257 PHY_EDGE_ROW_10_Left_27
*258 PHY_EDGE_ROW_10_Right_10
*259 PHY_EDGE_ROW_11_Left_28
*260 PHY_EDGE_ROW_11_Right_11
*261 PHY_EDGE_ROW_12_Left_29
*262 PHY_EDGE_ROW_12_Right_12
*263 PHY_EDGE_ROW_13_Left_30
*264 PHY_EDGE_ROW_13_Right_13
*265 PHY_EDGE_ROW_14_Left_31
*266 PHY_EDGE_ROW_14_Right_14
*267 PHY_EDGE_ROW_15_Left_32
*268 PHY_EDGE_ROW_15_Right_15
*269 PHY_EDGE_ROW_16_Left_33
*270 PHY_EDGE_ROW_16_Right_16
*271 PHY_EDGE_ROW_1_Left_18
*272 PHY_EDGE_ROW_1_Right_1
*273 PHY_EDGE_ROW_2_Left_19
*274 PHY_EDGE_ROW_2_Right_2
*275 PHY_EDGE_ROW_3_Left_20
*276 PHY_EDGE_ROW_3_Right_3
*277 PHY_EDGE_ROW_4_Left_21
*278 PHY_EDGE_ROW_4_Right_4
*279 PHY_EDGE_ROW_5_Left_22
*280 PHY_EDGE_ROW_5_Right_5
*281 PHY_EDGE_ROW_6_Left_23
*282 PHY_EDGE_ROW_6_Right_6
*283 PHY_EDGE_ROW_7_Left_24
*284 PHY_EDGE_ROW_7_Right_7
*285 PHY_EDGE_ROW_8_Left_25
*286 PHY_EDGE_ROW_8_Right_8
*287 PHY_EDGE_ROW_9_Left_26
*288 PHY_EDGE_ROW_9_Right_9
*289 TAP_TAPCELL_ROW_0_34
*290 TAP_TAPCELL_ROW_0_35
*291 TAP_TAPCELL_ROW_0_36
*292 TAP_TAPCELL_ROW_10_50
*293 TAP_TAPCELL_ROW_10_51
*294 TAP_TAPCELL_ROW_11_52
*295 TAP_TAPCELL_ROW_12_53
*296 TAP_TAPCELL_ROW_12_54
*297 TAP_TAPCELL_ROW_13_55
*298 TAP_TAPCELL_ROW_14_56
*299 TAP_TAPCELL_ROW_14_57
*300 TAP_TAPCELL_ROW_15_58
*301 TAP_TAPCELL_ROW_16_59
*302 TAP_TAPCELL_ROW_16_60
*303 TAP_TAPCELL_ROW_16_61
*304 TAP_TAPCELL_ROW_1_37
*305 TAP_TAPCELL_ROW_2_38
*306 TAP_TAPCELL_ROW_2_39
*307 TAP_TAPCELL_ROW_3_40
*308 TAP_TAPCELL_ROW_4_41
*309 TAP_TAPCELL_ROW_4_42
*310 TAP_TAPCELL_ROW_5_43
*311 TAP_TAPCELL_ROW_6_44
*312 TAP_TAPCELL_ROW_6_45
*313 TAP_TAPCELL_ROW_7_46
*314 TAP_TAPCELL_ROW_8_47
*315 TAP_TAPCELL_ROW_8_48
*316 TAP_TAPCELL_ROW_9_49
*317 _054_
*318 _055_
*319 _056_
*320 _057_
*321 _058_
*322 _059_
*323 _060_
*324 _061_
*325 _062_
*326 _063_
*327 _064_
*328 _065_
*329 _066_
*330 _067_
*331 _068_
*332 _069_
*333 _070_
*334 _071_
*335 _072_
*336 _073_
*337 _074_
*338 _075_
*339 _076_
*340 _077_
*341 _078_
*342 _079_
*343 _080_
*344 _081_
*345 _082_
*346 _083_
*347 _084_
*348 _085_
*349 _086_
*350 _087_
*351 _088_
*352 _089_
*353 _090_
*354 _091_
*355 _092_
*356 _093_
*357 _094_
*358 _095_
*359 _096_
*360 _097_
*361 _098_
*362 _099_
*363 _100_
*364 _101_
*365 _102_
*366 _103_
*367 _104_
*368 _105_
*369 _106_
*370 _107_
*371 _108_
*372 _109_
*373 _110_
*374 _111_
*375 _112_
*376 _113_
*377 _114_
*378 _115_
*379 _116_
*380 _117_
*381 _118_
*382 _119_
*383 _120_
*384 _121_
*385 _122_
*386 _123_
*387 _124_
*388 _125_
*389 _126_
*390 _127_
*391 _128_
*392 _129_
*393 _130_
*394 _131_
*395 _132_
*396 _133_
*397 _134_
*398 _135_
*399 _136_
*400 _137_
*401 _137__26
*402 _138_
*403 clkbuf_0_osc_ck
*404 clkbuf_1_0__f_osc_ck
*405 clkbuf_1_1__f_osc_ck
*406 fanout22
*407 fanout23
*408 fanout24
*409 fanout25
*410 hold1
*411 hold2
*412 hold3
*413 hold4
*414 hold5
*415 hold6
*416 hold7
*417 hold8
*418 input1
*419 input2
*420 input3
*421 input4
*422 input5
*423 input6
*424 input7
*425 input8
*426 output10
*427 output11
*428 output12
*429 output13
*430 output14
*431 output15
*432 output16
*433 output17
*434 output18
*435 output19
*436 output20
*437 output21
*438 output9

*PORTS
force_dis_rc_osc I
force_ena_rc_osc I
force_pdn I
force_pdnb O
force_short_oneshot I
osc_ck I
osc_ena O
otrip[0] I
otrip[1] I
otrip[2] I
otrip_decoded[0] O
otrip_decoded[1] O
otrip_decoded[2] O
otrip_decoded[3] O
otrip_decoded[4] O
otrip_decoded[5] O
otrip_decoded[6] O
otrip_decoded[7] O
por_timed_out O
por_unbuf O
pwup_filt I
startup_timed_out O

*D_NET *3 0.00181754
*CONN
*P force_dis_rc_osc I
*I *418:A I *D sky130_fd_sc_hd__clkbuf_1
*CAP
1 force_dis_rc_osc 0.000664687
2 *418:A 0
3 *3:15 0.000664687
4 *3:15 por_timed_out 0.000128265
5 *3:15 *23:15 3.85743e-05
6 *3:15 *94:10 0.000185329
7 *3:15 *100:14 0.000135996
*RES
1 force_dis_rc_osc *3:15 35.2343 
2 *3:15 *418:A 23 
*END

*D_NET *4 0.000920248
*CONN
*P force_ena_rc_osc I
*I *419:A I *D sky130_fd_sc_hd__clkbuf_1
*CAP
1 force_ena_rc_osc 0.000373824
2 *419:A 0.000373824
3 *419:A force_pdnb 8.28525e-05
4 *419:A osc_ena 8.97484e-05
*RES
1 force_ena_rc_osc *419:A 47.5941 
*END

*D_NET *5 0.000600878
*CONN
*P force_pdn I
*I *420:A I *D sky130_fd_sc_hd__clkbuf_1
*CAP
1 force_pdn 0.000285773
2 *420:A 0.000285773
3 *420:A force_pdnb 2.93326e-05
*RES
1 force_pdn *420:A 48.1354 
*END

*D_NET *6 0.000794986
*CONN
*P force_pdnb O
*I *438:X O *D sky130_fd_sc_hd__buf_2
*CAP
1 force_pdnb 0.0003414
2 *438:X 0.0003414
3 force_pdnb *133:10 0
4 *419:A force_pdnb 8.28525e-05
5 *420:A force_pdnb 2.93326e-05
*RES
1 *438:X force_pdnb 49.3115 
*END

*D_NET *7 0.000932139
*CONN
*P force_short_oneshot I
*I *421:A I *D sky130_fd_sc_hd__buf_2
*CAP
1 force_short_oneshot 0.000444218
2 *421:A 0
3 *7:17 0.000444218
4 *7:17 startup_timed_out 0
5 *7:17 *348:B1 0
6 *7:17 *437:A 4.37033e-05
*RES
1 force_short_oneshot *7:17 28.7336 
2 *7:17 *421:A 23 
*END

*D_NET *8 0.00505583
*CONN
*P osc_ck I
*I *403:A I *D sky130_fd_sc_hd__clkbuf_16
*CAP
1 osc_ck 0.0020425
2 *403:A 0
3 *8:13 0.0020425
4 *8:13 *359:C 0.000303585
5 *8:13 *58:14 0
6 *8:13 *72:45 0
7 *8:13 *87:12 0.00021356
8 *8:13 *87:27 5.50106e-05
9 *8:13 *88:12 0.000187996
10 *8:13 *89:49 5.4094e-05
11 *8:13 *114:20 8.4047e-05
12 *8:13 *116:14 7.25404e-05
13 *8:13 *128:92 0
*RES
1 osc_ck *8:13 40.1373 
2 *8:13 *403:A 23 
*END

*D_NET *9 0.000960235
*CONN
*P osc_ena O
*I *426:X O *D sky130_fd_sc_hd__buf_2
*CAP
1 osc_ena 0.000358813
2 *426:X 0.000358813
3 osc_ena *23:15 4.17018e-05
4 osc_ena *63:8 2.26406e-05
5 osc_ena *101:8 8.85189e-05
6 osc_ena *111:10 0
7 *419:A osc_ena 8.97484e-05
*RES
1 *426:X osc_ena 49.9819 
*END

*D_NET *10 0.00085858
*CONN
*P otrip[0] I
*I *422:A I *D sky130_fd_sc_hd__dlymetal6s2s_1
*CAP
1 otrip[0] 0.00042929
2 *422:A 0.00042929
3 *422:A otrip_decoded[1] 0
*RES
1 otrip[0] *422:A 47.4664 
*END

*D_NET *11 0.00124692
*CONN
*P otrip[1] I
*I *423:A I *D sky130_fd_sc_hd__dlymetal6s2s_1
*CAP
1 otrip[1] 0.000591054
2 *423:A 0
3 *11:11 0.000591054
4 *11:11 otrip_decoded[2] 0
5 *11:11 *424:A 0
6 *11:11 *104:8 0
7 *11:11 *106:8 0
8 *11:11 *130:36 6.48142e-05
*RES
1 otrip[1] *11:11 27.2836 
2 *11:11 *423:A 23 
*END

*D_NET *12 0.000976103
*CONN
*P otrip[2] I
*I *424:A I *D sky130_fd_sc_hd__dlymetal6s2s_1
*CAP
1 otrip[2] 0.000376745
2 *424:A 0.000376745
3 *424:A *17:10 0.00021925
4 *424:A *106:8 3.36312e-06
5 *11:11 *424:A 0
*RES
1 otrip[2] *424:A 47.3214 
*END

*D_NET *13 0.00100658
*CONN
*P otrip_decoded[0] O
*I *427:X O *D sky130_fd_sc_hd__buf_2
*CAP
1 otrip_decoded[0] 0.000503292
2 *427:X 0.000503292
3 otrip_decoded[0] otrip_decoded[3] 0
*RES
1 *427:X otrip_decoded[0] 47.57 
*END

*D_NET *14 0.00123564
*CONN
*P otrip_decoded[1] O
*I *428:X O *D sky130_fd_sc_hd__buf_2
*CAP
1 otrip_decoded[1] 0.00061782
2 *428:X 0.00061782
3 otrip_decoded[1] otrip_decoded[2] 0
4 otrip_decoded[1] *103:10 0
5 otrip_decoded[1] *129:12 0
6 otrip_decoded[1] *130:18 0
7 *422:A otrip_decoded[1] 0
*RES
1 *428:X otrip_decoded[1] 49.9107 
*END

*D_NET *15 0.00142965
*CONN
*P otrip_decoded[2] O
*I *429:X O *D sky130_fd_sc_hd__buf_2
*CAP
1 otrip_decoded[2] 0.000630645
2 *429:X 0.000630645
3 otrip_decoded[2] *429:A 5.70419e-05
4 otrip_decoded[2] *129:6 7.88926e-05
5 otrip_decoded[2] *131:19 3.24276e-05
6 otrip_decoded[1] otrip_decoded[2] 0
7 *11:11 otrip_decoded[2] 0
*RES
1 *429:X otrip_decoded[2] 49.9521 
*END

*D_NET *16 0.00100658
*CONN
*P otrip_decoded[3] O
*I *430:X O *D sky130_fd_sc_hd__buf_2
*CAP
1 otrip_decoded[3] 0.000503292
2 *430:X 0.000503292
3 otrip_decoded[3] otrip_decoded[7] 0
4 otrip_decoded[0] otrip_decoded[3] 0
*RES
1 *430:X otrip_decoded[3] 47.57 
*END

*D_NET *17 0.00143642
*CONN
*P otrip_decoded[4] O
*I *431:X O *D sky130_fd_sc_hd__buf_2
*CAP
1 otrip_decoded[4] 0.0001136
2 *431:X 0.000459018
3 *17:10 0.000572618
4 otrip_decoded[4] otrip_decoded[6] 0
5 *17:10 *431:A 5.12328e-05
6 *17:10 *131:19 2.07026e-05
7 *424:A *17:10 0.00021925
*RES
1 *431:X *17:10 48.5954 
2 *17:10 otrip_decoded[4] 3.82179 
*END

*D_NET *18 0.00108449
*CONN
*P otrip_decoded[5] O
*I *432:X O *D sky130_fd_sc_hd__buf_2
*CAP
1 otrip_decoded[5] 0.000471263
2 *432:X 0.000471263
3 otrip_decoded[5] otrip_decoded[6] 0
4 otrip_decoded[5] otrip_decoded[7] 0
5 otrip_decoded[5] *109:12 0.00014196
*RES
1 *432:X otrip_decoded[5] 47.57 
*END

*D_NET *19 0.00223034
*CONN
*P otrip_decoded[6] O
*I *433:X O *D sky130_fd_sc_hd__buf_2
*CAP
1 otrip_decoded[6] 0.0006351
2 *433:X 0.000207597
3 *19:12 0.000842697
4 otrip_decoded[6] *329:B 3.35885e-06
5 otrip_decoded[6] *336:C 0.000265378
6 otrip_decoded[6] *108:10 0.000111852
7 otrip_decoded[6] *129:55 2.51506e-05
8 otrip_decoded[6] *129:74 5.62433e-06
9 otrip_decoded[6] *130:47 2.72055e-05
10 otrip_decoded[6] *131:52 2.24973e-05
11 *19:12 *336:C 0
12 *19:12 *433:A 1.24376e-05
13 *19:12 *102:6 1.14876e-05
14 *19:12 *129:55 5.99526e-05
15 otrip_decoded[4] otrip_decoded[6] 0
16 otrip_decoded[5] otrip_decoded[6] 0
*RES
1 *433:X *19:12 40.8689 
2 *19:12 otrip_decoded[6] 14.1582 
*END

*D_NET *20 0.00101793
*CONN
*P otrip_decoded[7] O
*I *434:X O *D sky130_fd_sc_hd__buf_2
*CAP
1 otrip_decoded[7] 0.000494273
2 *434:X 0.000494273
3 otrip_decoded[7] *109:12 2.93845e-05
4 otrip_decoded[3] otrip_decoded[7] 0
5 otrip_decoded[5] otrip_decoded[7] 0
*RES
1 *434:X otrip_decoded[7] 47.57 
*END

*D_NET *21 0.000558023
*CONN
*P por_timed_out O
*I *435:X O *D sky130_fd_sc_hd__buf_2
*CAP
1 por_timed_out 0.000203205
2 *435:X 0.000203205
3 por_timed_out *94:10 2.33476e-05
4 *3:15 por_timed_out 0.000128265
*RES
1 *435:X por_timed_out 47.1648 
*END

*D_NET *22 0.00142809
*CONN
*P por_unbuf O
*I *436:X O *D sky130_fd_sc_hd__buf_2
*CAP
1 por_unbuf 0.00040842
2 *436:X 0.000217446
3 *22:8 0.000625865
4 *22:8 *112:38 0.000176355
*RES
1 *436:X *22:8 41.48 
2 *22:8 por_unbuf 8.7 
*END

*D_NET *23 0.00157495
*CONN
*P pwup_filt I
*I *425:A I *D sky130_fd_sc_hd__buf_1
*CAP
1 pwup_filt 0.000690157
2 *425:A 0
3 *23:15 0.000690157
4 *23:15 *338:B 0.000114357
5 *23:15 *63:8 0
6 *23:15 *100:14 0
7 osc_ena *23:15 4.17018e-05
8 *3:15 *23:15 3.85743e-05
*RES
1 pwup_filt *23:15 34.5483 
2 *23:15 *425:A 23 
*END

*D_NET *24 0.00140519
*CONN
*P startup_timed_out O
*I *437:X O *D sky130_fd_sc_hd__buf_2
*CAP
1 startup_timed_out 0.000261859
2 *437:X 0.000232135
3 *24:8 0.000493993
4 *24:8 *340:B 6.12496e-06
5 *24:8 *345:A1 0.000171906
6 *24:8 *348:B1 0.000221184
7 *24:8 *113:21 1.7992e-05
8 *7:17 startup_timed_out 0
*RES
1 *437:X *24:8 43.9554 
2 *24:8 startup_timed_out 8.9296 
*END

*D_NET *25 0.0011503
*CONN
*I *384:D I *D sky130_fd_sc_hd__dfrtp_1
*I *341:Y O *D sky130_fd_sc_hd__nand2_1
*CAP
1 *384:D 0
2 *341:Y 0.000426976
3 *25:6 0.000426976
4 *25:6 *341:B 1.24376e-05
5 *25:6 *95:14 0.000185434
6 *25:6 *95:23 9.84794e-05
*RES
1 *341:Y *25:6 31.7207 
2 *25:6 *384:D 23 
*END

*D_NET *26 0.00185385
*CONN
*I *385:D I *D sky130_fd_sc_hd__dfrtp_1
*I *343:X O *D sky130_fd_sc_hd__a211o_1
*CAP
1 *385:D 0
2 *343:X 0.000681575
3 *26:10 0.000681575
4 *26:10 *386:RESET_B 0.000282084
5 *26:10 *27:10 0.000208611
*RES
1 *343:X *26:10 48.7507 
2 *26:10 *385:D 38 
*END

*D_NET *27 0.00200243
*CONN
*I *386:D I *D sky130_fd_sc_hd__dfrtp_1
*I *345:Y O *D sky130_fd_sc_hd__o21ai_1
*CAP
1 *386:D 0
2 *345:Y 0.000625396
3 *27:10 0.000625396
4 *27:10 *343:B1 8.06804e-06
5 *27:10 *386:RESET_B 0.000127537
6 *27:10 *64:25 0.000267167
7 *27:10 *97:8 0.000140259
8 *26:10 *27:10 0.000208611
*RES
1 *345:Y *27:10 36.6507 
2 *27:10 *386:D 23 
*END

*D_NET *28 0.00197589
*CONN
*I *387:D I *D sky130_fd_sc_hd__dfrtp_1
*I *349:X O *D sky130_fd_sc_hd__o21a_1
*CAP
1 *387:D 0.000526144
2 *349:X 0.000229278
3 *28:8 0.000755423
4 *387:D *117:24 0.000301669
5 *28:8 *67:10 8.62876e-05
6 *28:8 *98:8 0
7 *28:8 *98:25 5.21127e-05
8 *28:8 *128:40 2.49733e-05
*RES
1 *349:X *28:8 42.0186 
2 *28:8 *387:D 49.9521 
*END

*D_NET *29 0.000508602
*CONN
*I *388:D I *D sky130_fd_sc_hd__dfrtp_1
*I *351:X O *D sky130_fd_sc_hd__a21bo_1
*CAP
1 *388:D 0.000145475
2 *351:X 6.14794e-05
3 *29:8 0.000206954
4 *388:D *80:124 6.17437e-06
5 *29:8 *399:RESET_B 0
6 *29:8 *128:58 8.85189e-05
*RES
1 *351:X *29:8 39.2014 
2 *29:8 *388:D 40.5479 
*END

*D_NET *30 0.000748658
*CONN
*I *389:D I *D sky130_fd_sc_hd__dfrtp_4
*I *353:X O *D sky130_fd_sc_hd__mux2_1
*CAP
1 *389:D 0
2 *353:X 0.000208257
3 *30:10 0.000208257
4 *30:10 *81:25 0.000202856
5 *30:10 *84:59 0.000110922
6 *30:10 *84:72 1.83667e-05
*RES
1 *353:X *30:10 41.6043 
2 *30:10 *389:D 38 
*END

*D_NET *31 0.000814564
*CONN
*I *390:D I *D sky130_fd_sc_hd__dfrtp_2
*I *358:Y O *D sky130_fd_sc_hd__o21ai_1
*CAP
1 *390:D 3.98641e-05
2 *358:Y 0.000189235
3 *31:8 0.000229099
4 *390:D *84:6 2.93747e-05
5 *31:8 *59:12 0
6 *31:8 *73:30 0.000326992
*RES
1 *358:Y *31:8 42.3707 
2 *31:8 *390:D 38.6214 
*END

*D_NET *32 0.000719559
*CONN
*I *391:D I *D sky130_fd_sc_hd__dfrtp_1
*I *361:X O *D sky130_fd_sc_hd__a21o_1
*CAP
1 *391:D 0
2 *361:X 0.000265854
3 *32:10 0.000265854
4 *32:10 *391:CLK 4.58924e-05
5 *32:10 *77:14 0
6 *32:10 *81:40 0.00014196
*RES
1 *361:X *32:10 42.4329 
2 *32:10 *391:D 38 
*END

*D_NET *33 0.000288557
*CONN
*I *392:D I *D sky130_fd_sc_hd__dfrtp_1
*I *364:X O *D sky130_fd_sc_hd__a21o_1
*CAP
1 *392:D 4.01985e-05
2 *364:X 7.61451e-05
3 *33:8 0.000116344
4 *33:8 *76:10 5.58694e-05
*RES
1 *364:X *33:8 39.5536 
2 *33:8 *392:D 38.6214 
*END

*D_NET *34 0.00147409
*CONN
*I *393:D I *D sky130_fd_sc_hd__dfrtp_1
*I *367:Y O *D sky130_fd_sc_hd__o21ai_1
*CAP
1 *393:D 0.000412702
2 *367:Y 0.000127192
3 *34:8 0.000539895
4 *34:8 *405:A 1.34417e-05
5 *34:8 *42:8 0.000164048
6 *34:8 *116:74 0.000216813
*RES
1 *367:Y *34:8 40.9621 
2 *34:8 *393:D 44.235 
*END

*D_NET *35 0.00152572
*CONN
*I *394:D I *D sky130_fd_sc_hd__dfrtp_1
*I *371:X O *D sky130_fd_sc_hd__a21o_1
*CAP
1 *394:D 0.000453863
2 *371:X 6.58102e-05
3 *35:8 0.000519673
4 *394:D *394:RESET_B 9.18694e-05
5 *394:D *395:RESET_B 3.65917e-05
6 *394:D *116:14 8.6799e-05
7 *35:8 *44:27 0.000135557
8 *35:8 *128:105 0.000135557
*RES
1 *371:X *35:8 39.9057 
2 *35:8 *394:D 43.8829 
*END

*D_NET *36 0.00299412
*CONN
*I *395:D I *D sky130_fd_sc_hd__dfrtp_1
*I *374:Y O *D sky130_fd_sc_hd__o21ai_1
*CAP
1 *395:D 0
2 *374:Y 8.6202e-05
3 *36:14 0.000471144
4 *36:8 0.000557346
5 *36:8 *58:14 0.000139713
6 *36:8 *58:29 3.64246e-05
7 *36:8 *116:74 6.04839e-05
8 *36:14 *370:A2 0.000278336
9 *36:14 *371:A2 5.79559e-05
10 *36:14 *376:C 9.58714e-05
11 *36:14 *376:D 0.000105903
12 *36:14 *393:RESET_B 2.84857e-05
13 *36:14 *395:CLK 7.44257e-05
14 *36:14 *58:29 2.46906e-05
15 *36:14 *89:6 0.000268074
16 *36:14 *89:13 0.000301116
17 *36:14 *89:49 0.000398071
18 *36:14 *114:20 9.87385e-06
*RES
1 *374:Y *36:8 40.2579 
2 *36:8 *36:14 28.0293 
3 *36:14 *395:D 23 
*END

*D_NET *37 0.00214538
*CONN
*I *396:D I *D sky130_fd_sc_hd__dfrtp_1
*I *377:X O *D sky130_fd_sc_hd__a21o_1
*CAP
1 *396:D 0.000320576
2 *377:X 0.000312224
3 *37:14 0.000632799
4 *396:D *435:A 3.59554e-06
5 *37:14 *395:CLK 0.000139647
6 *37:14 *395:RESET_B 0.000188916
7 *37:14 *118:12 5.3304e-05
8 *37:14 *118:18 0.000494321
9 *37:14 *120:8 0
*RES
1 *377:X *37:14 46.2236 
2 *37:14 *396:D 42.0238 
*END

*D_NET *38 0.00311064
*CONN
*I *397:D I *D sky130_fd_sc_hd__dfrtp_1
*I *380:Y O *D sky130_fd_sc_hd__xnor2_1
*CAP
1 *397:D 0.000565837
2 *380:Y 0.000503919
3 *38:10 0.00106976
4 *397:D *80:6 5.56279e-05
5 *397:D *80:23 5.50106e-05
6 *397:D *80:58 0.000128964
7 *397:D *91:10 8.55173e-05
8 *38:10 *325:B 8.4047e-05
9 *38:10 *380:A 7.14493e-05
10 *38:10 *410:A 0
11 *38:10 *52:8 0
12 *38:10 *53:12 0.000185945
13 *38:10 *60:12 1.0402e-05
14 *38:10 *61:37 0
15 *38:10 *62:10 0
16 *38:10 *91:10 3.40698e-05
17 *38:10 *91:29 0.000260092
*RES
1 *380:Y *38:10 47.4664 
2 *38:10 *397:D 49.5793 
*END

*D_NET *39 0.000399781
*CONN
*I *398:D I *D sky130_fd_sc_hd__dfrtp_1
*I *382:X O *D sky130_fd_sc_hd__xor2_1
*CAP
1 *398:D 0
2 *382:X 0.00014435
3 *39:10 0.00014435
4 *39:10 *52:8 0
5 *39:10 *53:12 5.31236e-05
6 *39:10 *123:8 5.79559e-05
*RES
1 *382:X *39:10 41.2314 
2 *39:10 *398:D 38 
*END

*D_NET *40 0.00159551
*CONN
*I *399:D I *D sky130_fd_sc_hd__dfrtp_1
*I *383:X O *D sky130_fd_sc_hd__xor2_1
*CAP
1 *399:D 0
2 *383:X 0.000430247
3 *40:10 0.000430247
4 *40:10 *383:A 0.000231443
5 *40:10 *404:A 3.28772e-05
6 *40:10 *80:33 0.000192077
7 *40:10 *92:18 3.07067e-05
8 *40:10 *92:52 0.000152941
9 *40:10 *119:18 3.70187e-05
10 *40:10 *119:31 0
11 *40:10 *123:8 5.79559e-05
*RES
1 *383:X *40:10 48.7714 
2 *40:10 *399:D 38 
*END

*D_NET *41 0.00253636
*CONN
*I *364:A2 I *D sky130_fd_sc_hd__a21o_1
*I *363:Y O *D sky130_fd_sc_hd__nand2_1
*CAP
1 *364:A2 0.000172352
2 *363:Y 0.000351888
3 *41:10 0.00052424
4 *364:A2 *324:C 4.50291e-05
5 *364:A2 *361:A2 0
6 *364:A2 *362:A1 5.3304e-05
7 *364:A2 *362:B1 3.88133e-05
8 *364:A2 *364:A1 5.83407e-05
9 *364:A2 *364:B1 4.00259e-06
10 *364:A2 *81:40 0.000529239
11 *364:A2 *112:63 9.65021e-05
12 *41:10 *58:78 0.000232401
13 *41:10 *85:10 0.000133316
14 *41:10 *112:55 0.000296937
*RES
1 *363:Y *41:10 45.25 
2 *41:10 *364:A2 44.3593 
*END

*D_NET *42 0.00187258
*CONN
*I *367:A1 I *D sky130_fd_sc_hd__o21ai_1
*I *365:X O *D sky130_fd_sc_hd__and3_1
*CAP
1 *367:A1 3.41136e-05
2 *365:X 0.000367099
3 *42:8 0.000401212
4 *367:A1 *73:10 9.67842e-05
5 *367:A1 *114:10 5.12254e-05
6 *42:8 *325:A 0
7 *42:8 *365:B 6.03634e-05
8 *42:8 *404:A 7.32844e-05
9 *42:8 *405:A 5.96546e-05
10 *42:8 *43:12 0.000378492
11 *42:8 *58:29 4.84045e-05
12 *42:8 *110:12 4.97925e-05
13 *42:8 *115:34 8.30566e-06
14 *42:8 *116:74 4.42688e-05
15 *42:8 *119:18 3.55303e-05
16 *34:8 *42:8 0.000164048
*RES
1 *365:X *42:8 47.6529 
2 *42:8 *367:A1 39.0979 
*END

*D_NET *43 0.00163992
*CONN
*I *367:A2 I *D sky130_fd_sc_hd__o21ai_1
*I *366:Y O *D sky130_fd_sc_hd__a21oi_1
*CAP
1 *367:A2 0
2 *366:Y 0.000359986
3 *43:12 0.000359986
4 *43:12 *366:B1 8.85386e-05
5 *43:12 *405:A 0.000378492
6 *43:12 *87:27 7.44257e-05
7 *42:8 *43:12 0.000378492
*RES
1 *366:Y *43:12 47.0521 
2 *43:12 *367:A2 38 
*END

*D_NET *44 0.00641499
*CONN
*I *373:C I *D sky130_fd_sc_hd__and3_1
*I *372:A2 I *D sky130_fd_sc_hd__a21oi_1
*I *369:B I *D sky130_fd_sc_hd__nand2_1
*I *376:D I *D sky130_fd_sc_hd__nand4_1
*I *375:A3 I *D sky130_fd_sc_hd__a31o_1
*I *368:X O *D sky130_fd_sc_hd__and3_1
*CAP
1 *373:C 0.00024468
2 *372:A2 1.19766e-05
3 *369:B 0.000271897
4 *376:D 0.000203723
5 *375:A3 7.84207e-05
6 *368:X 0.000588661
7 *44:59 0.000402002
8 *44:40 0.000475531
9 *44:27 0.000436568
10 *44:12 0.000252976
11 *44:10 0.000588661
12 *369:B *377:A1 1.14762e-05
13 *369:B *45:14 0.000221997
14 *369:B *72:8 0
15 *369:B *114:33 0
16 *369:B *118:12 0
17 *372:A2 *372:A1 1.8673e-05
18 *372:A2 *114:33 2.67149e-05
19 *373:C *372:A1 2.78139e-05
20 *373:C *372:B1 2.47128e-05
21 *373:C *373:A 5.50049e-05
22 *373:C *89:49 2.74627e-05
23 *373:C *114:29 5.97265e-06
24 *373:C *114:33 1.55613e-06
25 *375:A3 *375:A2 6.01255e-05
26 *375:A3 *375:B1 2.3853e-05
27 *375:A3 *380:B 0
28 *375:A3 *89:21 8.58339e-06
29 *375:A3 *90:10 2.32004e-05
30 *375:A3 *90:31 3.70094e-05
31 *375:A3 *128:105 2.96154e-05
32 *376:D *376:C 9.58714e-05
33 *376:D *50:10 3.22879e-05
34 *44:10 *365:B 0.0002263
35 *44:10 *368:A 0.000393293
36 *44:10 *368:B 5.3304e-05
37 *44:10 *375:B1 0.000125896
38 *44:10 *380:A 2.47127e-05
39 *44:10 *380:B 0.0001946
40 *44:10 *90:10 5.3304e-05
41 *44:10 *116:10 5.56356e-05
42 *44:27 *72:45 3.70094e-05
43 *44:27 *87:12 0
44 *44:27 *89:21 0.000145926
45 *44:27 *128:105 0.000112721
46 *44:40 *72:45 0.000139647
47 *44:40 *128:105 6.32688e-05
48 *44:59 *72:8 5.50049e-05
49 *44:59 *72:45 8.47428e-05
50 *44:59 *114:33 9.0142e-05
51 *44:59 *128:92 6.00922e-06
52 *44:59 *128:105 2.49836e-05
53 *35:8 *44:27 0.000135557
54 *36:14 *376:D 0.000105903
*RES
1 *368:X *44:10 35.2214 
2 *44:10 *44:12 15 
3 *44:12 *375:A3 39.9679 
4 *44:12 *44:27 5.075 
5 *44:27 *376:D 41.9771 
6 *44:27 *44:40 1.90571 
7 *44:40 *369:B 42.205 
8 *44:40 *44:59 18.5111 
9 *44:59 *372:A2 23.7198 
10 *44:59 *373:C 26.8218 
*END

*D_NET *45 0.00119531
*CONN
*I *371:A1 I *D sky130_fd_sc_hd__a21o_1
*I *369:Y O *D sky130_fd_sc_hd__nand2_1
*CAP
1 *371:A1 0
2 *369:Y 0.00029122
3 *45:14 0.00029122
4 *45:14 *377:A1 3.7122e-06
5 *45:14 *72:8 5.61255e-06
6 *45:14 *72:45 0.000177911
7 *45:14 *114:33 0.000136738
8 *45:14 *114:35 6.69016e-05
9 *369:B *45:14 0.000221997
*RES
1 *369:Y *45:14 44.8564 
2 *45:14 *371:A1 38 
*END

*D_NET *46 0.000145126
*CONN
*I *371:A2 I *D sky130_fd_sc_hd__a21o_1
*I *370:X O *D sky130_fd_sc_hd__a31o_1
*CAP
1 *371:A2 4.08451e-05
2 *370:X 4.08451e-05
3 *371:A2 *114:20 5.47983e-06
4 *36:14 *371:A2 5.79559e-05
*RES
1 *370:X *371:A2 47.1186 
*END

*D_NET *47 0.000682804
*CONN
*I *374:A1 I *D sky130_fd_sc_hd__o21ai_1
*I *372:Y O *D sky130_fd_sc_hd__a21oi_1
*CAP
1 *374:A1 0.000113696
2 *372:Y 0.000113696
3 *374:A1 *372:A1 5.47983e-06
4 *374:A1 *372:B1 9.91024e-05
5 *374:A1 *374:A2 4.31954e-05
6 *374:A1 *73:10 0
7 *374:A1 *89:49 8.53029e-05
8 *374:A1 *114:10 0.000146497
9 *374:A1 *114:29 7.58336e-05
*RES
1 *372:Y *374:A1 49.9979 
*END

*D_NET *48 0.00025464
*CONN
*I *374:A2 I *D sky130_fd_sc_hd__o21ai_1
*I *373:X O *D sky130_fd_sc_hd__and3_1
*CAP
1 *374:A2 9.75109e-05
2 *373:X 9.75109e-05
3 *374:A2 *373:A 2.93104e-06
4 *374:A2 *114:10 1.34914e-05
5 *374:A1 *374:A2 4.31954e-05
*RES
1 *373:X *374:A2 48.0921 
*END

*D_NET *49 0.00211529
*CONN
*I *377:A1 I *D sky130_fd_sc_hd__a21o_1
*I *375:X O *D sky130_fd_sc_hd__a31o_1
*CAP
1 *377:A1 5.61252e-05
2 *375:X 0.000446475
3 *49:10 0.0005026
4 *377:A1 *72:8 0.000141954
5 *49:10 *375:A2 7.73389e-05
6 *49:10 *394:RESET_B 0
7 *49:10 *50:10 8.51329e-05
8 *49:10 *72:16 0
9 *49:10 *90:6 2.18506e-05
10 *49:10 *90:10 9.75779e-05
11 *49:10 *114:39 0.000233443
12 *49:10 *114:45 0.000398655
13 *49:10 *114:51 3.22879e-05
14 *49:10 *116:34 0
15 *49:10 *118:18 0
16 *49:10 *128:92 6.65598e-06
17 *369:B *377:A1 1.14762e-05
18 *45:14 *377:A1 3.7122e-06
*RES
1 *375:X *49:10 48.9993 
2 *49:10 *377:A1 39.5743 
*END

*D_NET *50 0.000412555
*CONN
*I *377:A2 I *D sky130_fd_sc_hd__a21o_1
*I *376:Y O *D sky130_fd_sc_hd__nand4_1
*CAP
1 *377:A2 0
2 *376:Y 0.00012974
3 *50:10 0.00012974
4 *50:10 *395:CLK 0
5 *50:10 *118:18 3.56537e-05
6 *376:D *50:10 3.22879e-05
7 *49:10 *50:10 8.51329e-05
*RES
1 *376:Y *50:10 40.8793 
2 *50:10 *377:A2 38 
*END

*D_NET *51 0.00223923
*CONN
*I *380:B I *D sky130_fd_sc_hd__xnor2_1
*I *378:Y O *D sky130_fd_sc_hd__o21ai_1
*CAP
1 *380:B 0.00043695
2 *378:Y 0.000117184
3 *51:8 0.000554134
4 *380:B *375:A2 0.000266316
5 *380:B *375:B1 2.812e-05
6 *380:B *380:A 0.000140313
7 *380:B *114:51 5.50106e-05
8 *51:8 *379:B1 1.14452e-05
9 *51:8 *83:20 5.09072e-05
10 *51:8 *114:51 0.00030457
11 *51:8 *128:105 7.96833e-05
12 *375:A3 *380:B 0
13 *44:10 *380:B 0.0001946
*RES
1 *378:Y *51:8 42.0186 
2 *51:8 *380:B 46.1614 
*END

*D_NET *52 0.000997433
*CONN
*I *382:B I *D sky130_fd_sc_hd__xor2_1
*I *379:X O *D sky130_fd_sc_hd__o211a_1
*CAP
1 *382:B 6.37307e-05
2 *379:X 0.000434986
3 *52:8 0.000498716
4 *52:8 *397:RESET_B 0
5 *52:8 *80:14 0
6 *52:8 *80:58 0
7 *52:8 *91:10 0
8 *38:10 *52:8 0
9 *39:10 *52:8 0
*RES
1 *379:X *52:8 45.8921 
2 *52:8 *382:B 39.0979 
*END

*D_NET *53 0.00162327
*CONN
*I *383:B I *D sky130_fd_sc_hd__xor2_1
*I *381:X O *D sky130_fd_sc_hd__o2111a_1
*CAP
1 *383:B 0
2 *381:X 0.000550602
3 *53:12 0.000550602
4 *53:12 *60:12 2.26497e-05
5 *53:12 *61:24 8.20218e-05
6 *53:12 *80:14 8.26672e-05
7 *53:12 *91:29 5.93879e-05
8 *53:12 *92:18 3.62675e-05
9 *38:10 *53:12 0.000185945
10 *39:10 *53:12 5.31236e-05
*RES
1 *381:X *53:12 49.9521 
2 *53:12 *383:B 38 
*END

*D_NET *54 0.000988626
*CONN
*I *343:A1 I *D sky130_fd_sc_hd__a211o_1
*I *318:Y O *D sky130_fd_sc_hd__nand2_1
*CAP
1 *343:A1 2.95294e-05
2 *318:Y 0.00013156
3 *54:8 0.000161089
4 *343:A1 *64:25 5.50049e-05
5 *54:8 *64:25 1.69668e-05
6 *54:8 *65:10 4.85126e-05
7 *54:8 *95:34 0.000157309
8 *54:8 *95:42 0.000194327
9 *54:8 *96:53 0.000194327
*RES
1 *318:Y *54:8 42.7229 
2 *54:8 *343:A1 38.6214 
*END

*D_NET *55 0.00350801
*CONN
*I *345:A1 I *D sky130_fd_sc_hd__o21ai_1
*I *348:B1 I *D sky130_fd_sc_hd__a21o_1
*I *319:X O *D sky130_fd_sc_hd__and3_1
*CAP
1 *345:A1 5.26595e-05
2 *348:B1 0.000417449
3 *319:X 0.000393768
4 *55:18 0.000863877
5 *345:A1 *66:10 7.6144e-05
6 *345:A1 *113:21 4.07715e-05
7 *348:B1 *348:A1 5.70419e-05
8 *348:B1 *66:10 1.01436e-05
9 *348:B1 *68:10 1.01436e-05
10 *348:B1 *113:21 9.70251e-05
11 *348:B1 *128:14 0
12 *348:B1 *128:40 5.61207e-05
13 *55:18 *319:A 0.000139319
14 *55:18 *319:C 0.000253758
15 *55:18 *320:D 9.84851e-05
16 *55:18 *344:A2 4.39607e-05
17 *55:18 *66:10 4.96717e-05
18 *55:18 *96:23 0.000380143
19 *55:18 *96:31 7.44354e-05
20 *7:17 *348:B1 0
21 *24:8 *345:A1 0.000171906
22 *24:8 *348:B1 0.000221184
*RES
1 *319:X *55:18 49.2064 
2 *55:18 *348:B1 45.9336 
3 *55:18 *345:A1 40.2579 
*END

*D_NET *56 0.00283906
*CONN
*I *322:B I *D sky130_fd_sc_hd__and2_1
*I *321:A I *D sky130_fd_sc_hd__inv_2
*I *339:B1 I *D sky130_fd_sc_hd__o311a_1
*I *320:X O *D sky130_fd_sc_hd__and4_1
*CAP
1 *322:B 7.63497e-05
2 *321:A 0
3 *339:B1 0.000113504
4 *320:X 6.95826e-05
5 *56:31 0.000182696
6 *56:14 0.000731684
7 *56:12 0.000535316
8 *56:8 9.30649e-05
9 *322:B *322:A 1.32314e-05
10 *339:B1 *339:A3 3.91386e-05
11 *339:B1 *339:C1 3.23684e-05
12 *339:B1 *60:44 2.93747e-05
13 *339:B1 *61:14 9.24795e-06
14 *56:8 *98:25 2.79004e-05
15 *56:8 *117:43 0
16 *56:14 *322:A 7.13587e-05
17 *56:14 *339:C1 1.41129e-05
18 *56:14 *57:12 0.000359332
19 *56:14 *99:23 0.000190662
20 *56:31 *351:A2 0
21 *56:31 *57:12 0.000164401
22 *56:31 *61:8 8.57393e-05
*RES
1 *320:X *56:8 39.2014 
2 *56:8 *56:12 15.4971 
3 *56:12 *56:14 9.67357 
4 *56:14 *339:B1 25.0714 
5 *56:14 *56:31 33.8114 
6 *56:31 *321:A 23 
7 *56:12 *322:B 24.595 
*END

*D_NET *57 0.00285456
*CONN
*I *349:A2 I *D sky130_fd_sc_hd__o21a_1
*I *350:B1 I *D sky130_fd_sc_hd__o21a_1
*I *321:Y O *D sky130_fd_sc_hd__inv_2
*CAP
1 *349:A2 0.000701086