*SPEF "ieee 1481-1999"
*DESIGN "por_dig"
*DATE "08:20:37 Monday April 15, 2024"
*VENDOR "The OpenROAD Project"
*PROGRAM "OpenROAD"
*VERSION "0889970d1790a2617e69f253221b8bd7626e51dc"
*DESIGN_FLOW "NAME_SCOPE LOCAL" "PIN_CAP NONE"
*DIVIDER /
*DELIMITER :
*BUS_DELIMITER []
*T_UNIT 1 NS
*C_UNIT 1 PF
*R_UNIT 1 OHM
*L_UNIT 1 HENRY

*NAME_MAP
*3 force_dis_rc_osc
*4 force_ena_rc_osc
*5 force_pdn
*6 force_pdnb
*7 force_short_oneshot
*8 osc_ck
*9 osc_ena
*10 otrip[0]
*11 otrip[1]
*12 otrip[2]
*13 otrip_decoded[0]
*14 otrip_decoded[1]
*15 otrip_decoded[2]
*16 otrip_decoded[3]
*17 otrip_decoded[4]
*18 otrip_decoded[5]
*19 otrip_decoded[6]
*20 otrip_decoded[7]
*21 por_timed_out
*22 por_unbuf
*23 pwup_filt
*24 startup_timed_out
*25 _000_
*26 _001_
*27 _002_
*28 _003_
*29 _004_
*30 _005_
*31 _006_
*32 _007_
*33 _008_
*34 _009_
*35 _010_
*36 _011_
*37 _012_
*38 _013_
*39 _014_
*40 _015_
*41 _016_
*42 _017_
*43 _018_
*44 _019_
*45 _020_
*46 _021_
*47 _022_
*48 _023_
*49 _024_
*50 _025_
*51 _026_
*52 _027_
*53 _028_
*54 _029_
*55 _030_
*56 _031_
*57 _032_
*58 _033_
*59 _034_
*60 _035_
*61 _036_
*62 _037_
*63 _038_
*64 _039_
*65 _040_
*66 _041_
*67 _042_
*68 _043_
*69 _044_
*70 _045_
*71 _046_
*72 _047_
*73 _048_
*74 _049_
*75 clknet_0_osc_ck
*76 clknet_1_0__leaf_osc_ck
*77 clknet_1_1__leaf_osc_ck
*78 cnt_por\[0\]
*79 cnt_por\[10\]
*80 cnt_por\[1\]
*81 cnt_por\[2\]
*82 cnt_por\[3\]
*83 cnt_por\[4\]
*84 cnt_por\[5\]
*85 cnt_por\[6\]
*86 cnt_por\[7\]
*87 cnt_por\[8\]
*88 cnt_por\[9\]
*89 cnt_rsb
*90 cnt_rsb_stg1
*91 cnt_st\[0\]
*92 cnt_st\[1\]
*93 cnt_st\[2\]
*94 cnt_st\[3\]
*95 cnt_st\[4\]
*96 cnt_st\[5\]
*97 net1
*98 net10
*99 net11
*100 net12
*101 net13
*102 net14
*103 net15
*104 net16
*105 net17
*106 net18
*107 net19
*108 net2
*109 net20
*110 net21
*111 net22
*112 net23
*113 net24
*114 net25
*115 net26
*116 net27
*117 net28
*118 net29
*119 net3
*120 net30
*121 net31
*122 net32
*123 net33
*124 net34
*125 net35
*126 net36
*127 net37
*128 net38
*129 net39
*130 net4
*131 net40
*132 net41
*133 net42
*134 net5
*135 net6
*136 net7
*137 net8
*138 net9
*139 FILLER_0_0_15
*140 FILLER_0_0_27
*141 FILLER_0_0_3
*142 FILLER_0_0_39
*143 FILLER_0_0_57
*144 FILLER_0_0_63
*145 FILLER_0_0_70
*146 FILLER_0_0_77
*147 FILLER_0_0_85
*148 FILLER_0_0_97
*149 FILLER_0_10_80
*150 FILLER_0_10_93
*151 FILLER_0_11_25
*152 FILLER_0_11_3
*153 FILLER_0_11_37
*154 FILLER_0_11_60
*155 FILLER_0_11_89
*156 FILLER_0_11_97
*157 FILLER_0_12_23
*158 FILLER_0_12_56
*159 FILLER_0_12_73
*160 FILLER_0_12_82
*161 FILLER_0_12_85
*162 FILLER_0_12_97
*163 FILLER_0_13_20
*164 FILLER_0_13_28
*165 FILLER_0_13_3
*166 FILLER_0_13_43
*167 FILLER_0_13_54
*168 FILLER_0_13_57
*169 FILLER_0_13_83
*170 FILLER_0_13_95
*171 FILLER_0_14_3
*172 FILLER_0_14_37
*173 FILLER_0_14_53
*174 FILLER_0_14_7
*175 FILLER_0_14_83
*176 FILLER_0_14_85
*177 FILLER_0_14_97
*178 FILLER_0_15_11
*179 FILLER_0_15_3
*180 FILLER_0_15_85
*181 FILLER_0_15_97
*182 FILLER_0_16_15
*183 FILLER_0_16_27
*184 FILLER_0_16_29
*185 FILLER_0_16_3
*186 FILLER_0_16_37
*187 FILLER_0_16_50
*188 FILLER_0_16_65
*189 FILLER_0_16_77
*190 FILLER_0_16_83
*191 FILLER_0_16_85
*192 FILLER_0_16_97
*193 FILLER_0_1_15
*194 FILLER_0_1_27
*195 FILLER_0_1_3
*196 FILLER_0_1_46
*197 FILLER_0_1_64
*198 FILLER_0_1_76
*199 FILLER_0_1_88
*200 FILLER_0_1_96
*201 FILLER_0_2_18
*202 FILLER_0_2_26
*203 FILLER_0_2_29
*204 FILLER_0_2_35
*205 FILLER_0_2_42
*206 FILLER_0_2_55
*207 FILLER_0_2_6
*208 FILLER_0_2_67
*209 FILLER_0_2_79
*210 FILLER_0_2_83
*211 FILLER_0_2_85
*212 FILLER_0_2_97
*213 FILLER_0_3_13
*214 FILLER_0_3_25
*215 FILLER_0_3_31
*216 FILLER_0_3_38
*217 FILLER_0_3_48
*218 FILLER_0_3_53
*219 FILLER_0_3_57
*220 FILLER_0_3_61
*221 FILLER_0_3_69
*222 FILLER_0_3_81
*223 FILLER_0_3_93
*224 FILLER_0_4_23
*225 FILLER_0_4_27
*226 FILLER_0_4_50
*227 FILLER_0_4_64
*228 FILLER_0_4_77
*229 FILLER_0_4_83
*230 FILLER_0_4_85
*231 FILLER_0_4_97
*232 FILLER_0_5_14
*233 FILLER_0_5_6
*234 FILLER_0_5_85
*235 FILLER_0_5_97
*236 FILLER_0_6_27
*237 FILLER_0_6_43
*238 FILLER_0_6_85
*239 FILLER_0_6_93
*240 FILLER_0_7_3
*241 FILLER_0_7_44
*242 FILLER_0_7_53
*243 FILLER_0_7_78
*244 FILLER_0_7_90
*245 FILLER_0_7_98
*246 FILLER_0_8_27
*247 FILLER_0_8_82
*248 FILLER_0_8_90
*249 FILLER_0_8_98
*250 FILLER_0_9_7
*251 FILLER_0_9_92
*252 FILLER_0_9_98
*253 PHY_EDGE_ROW_0_Left_17
*254 PHY_EDGE_ROW_0_Right_0
*255 PHY_EDGE_ROW_10_Left_27
*256 PHY_EDGE_ROW_10_Right_10
*257 PHY_EDGE_ROW_11_Left_28
*258 PHY_EDGE_ROW_11_Right_11
*259 PHY_EDGE_ROW_12_Left_29
*260 PHY_EDGE_ROW_12_Right_12
*261 PHY_EDGE_ROW_13_Left_30
*262 PHY_EDGE_ROW_13_Right_13
*263 PHY_EDGE_ROW_14_Left_31
*264 PHY_EDGE_ROW_14_Right_14
*265 PHY_EDGE_ROW_15_Left_32
*266 PHY_EDGE_ROW_15_Right_15
*267 PHY_EDGE_ROW_16_Left_33
*268 PHY_EDGE_ROW_16_Right_16
*269 PHY_EDGE_ROW_1_Left_18
*270 PHY_EDGE_ROW_1_Right_1
*271 PHY_EDGE_ROW_2_Left_19
*272 PHY_EDGE_ROW_2_Right_2
*273 PHY_EDGE_ROW_3_Left_20
*274 PHY_EDGE_ROW_3_Right_3
*275 PHY_EDGE_ROW_4_Left_21
*276 PHY_EDGE_ROW_4_Right_4
*277 PHY_EDGE_ROW_5_Left_22
*278 PHY_EDGE_ROW_5_Right_5
*279 PHY_EDGE_ROW_6_Left_23
*280 PHY_EDGE_ROW_6_Right_6
*281 PHY_EDGE_ROW_7_Left_24
*282 PHY_EDGE_ROW_7_Right_7
*283 PHY_EDGE_ROW_8_Left_25
*284 PHY_EDGE_ROW_8_Right_8
*285 PHY_EDGE_ROW_9_Left_26
*286 PHY_EDGE_ROW_9_Right_9
*287 TAP_TAPCELL_ROW_0_34
*288 TAP_TAPCELL_ROW_0_35
*289 TAP_TAPCELL_ROW_0_36
*290 TAP_TAPCELL_ROW_10_50
*291 TAP_TAPCELL_ROW_10_51
*292 TAP_TAPCELL_ROW_11_52
*293 TAP_TAPCELL_ROW_12_53
*294 TAP_TAPCELL_ROW_12_54
*295 TAP_TAPCELL_ROW_13_55
*296 TAP_TAPCELL_ROW_14_56
*297 TAP_TAPCELL_ROW_14_57
*298 TAP_TAPCELL_ROW_15_58
*299 TAP_TAPCELL_ROW_16_59
*300 TAP_TAPCELL_ROW_16_60
*301 TAP_TAPCELL_ROW_16_61
*302 TAP_TAPCELL_ROW_1_37
*303 TAP_TAPCELL_ROW_2_38
*304 TAP_TAPCELL_ROW_2_39
*305 TAP_TAPCELL_ROW_3_40
*306 TAP_TAPCELL_ROW_4_41
*307 TAP_TAPCELL_ROW_4_42
*308 TAP_TAPCELL_ROW_5_43
*309 TAP_TAPCELL_ROW_6_44
*310 TAP_TAPCELL_ROW_6_45
*311 TAP_TAPCELL_ROW_7_46
*312 TAP_TAPCELL_ROW_8_47
*313 TAP_TAPCELL_ROW_8_48
*314 TAP_TAPCELL_ROW_9_49
*315 _050_
*316 _051_
*317 _052_
*318 _053_
*319 _054_
*320 _055_
*321 _056_
*322 _057_
*323 _058_
*324 _059_
*325 _060_
*326 _061_
*327 _062_
*328 _063_
*329 _064_
*330 _065_
*331 _066_
*332 _067_
*333 _068_
*334 _069_
*335 _070_
*336 _071_
*337 _072_
*338 _073_
*339 _074_
*340 _075_
*341 _076_
*342 _077_
*343 _078_
*344 _079_
*345 _080_
*346 _081_
*347 _082_
*348 _083_
*349 _084_
*350 _085_
*351 _086_
*352 _087_
*353 _088_
*354 _089_
*355 _090_
*356 _091_
*357 _092_
*358 _093_
*359 _094_
*360 _095_
*361 _096_
*362 _097_
*363 _098_
*364 _099_
*365 _100_
*366 _101_
*367 _102_
*368 _103_
*369 _104_
*370 _105_
*371 _106_
*372 _107_
*373 _108_
*374 _109_
*375 _110_
*376 _111_
*377 _112_
*378 _113_
*379 _114_
*380 _115_
*381 _116_
*382 _117_
*383 _118_
*384 _119_
*385 _120_
*386 _121_
*387 _122_
*388 _123_
*389 _124_
*390 _125_
*391 _126_
*392 _127_
*393 _128_
*394 _129_
*395 _130_
*396 _130__27
*397 _131_
*398 clkbuf_0_osc_ck
*399 clkbuf_1_0__f_osc_ck
*400 clkbuf_1_1__f_osc_ck
*401 fanout22
*402 fanout23
*403 fanout24
*404 fanout25
*405 fanout26
*406 hold1
*407 hold10
*408 hold11
*409 hold12
*410 hold13
*411 hold14
*412 hold15
*413 hold2
*414 hold3
*415 hold4
*416 hold5
*417 hold6
*418 hold7
*419 hold8
*420 hold9
*421 input1
*422 input2
*423 input3
*424 input4
*425 input5
*426 input6
*427 input7
*428 input8
*429 output10
*430 output11
*431 output12
*432 output13
*433 output14
*434 output15
*435 output16
*436 output17
*437 output18
*438 output19
*439 output20
*440 output21
*441 output9

*PORTS
force_dis_rc_osc I
force_ena_rc_osc I
force_pdn I
force_pdnb O
force_short_oneshot I
osc_ck I
osc_ena O
otrip[0] I
otrip[1] I
otrip[2] I
otrip_decoded[0] O
otrip_decoded[1] O
otrip_decoded[2] O
otrip_decoded[3] O
otrip_decoded[4] O
otrip_decoded[5] O
otrip_decoded[6] O
otrip_decoded[7] O
por_timed_out O
por_unbuf O
pwup_filt I
startup_timed_out O

*D_NET *3 0.00066531
*CONN
*P force_dis_rc_osc I
*I *421:A I *D sky130_fd_sc_hd__clkbuf_1
*CAP
1 force_dis_rc_osc 0.000265442
2 *421:A 0.000265442
3 *421:A force_pdnb 0
4 *421:A osc_ena 7.16204e-05
5 *421:A *23:15 6.28047e-05
6 *421:A *53:10 0
7 *421:A *137:15 0
*RES
1 force_dis_rc_osc *421:A 48.4875 
*END

*D_NET *4 0.000669618
*CONN
*P force_ena_rc_osc I
*I *422:A I *D sky130_fd_sc_hd__clkbuf_1
*CAP
1 force_ena_rc_osc 0.000223204
2 *422:A 0.000223204
3 *422:A por_timed_out 8.06147e-05
4 *422:A startup_timed_out 5.08354e-05
5 *422:A *24:10 3.95717e-05
6 *422:A *39:8 2.04774e-05
7 *422:A *108:8 3.17098e-05
*RES
1 force_ena_rc_osc *422:A 48.4875 
*END

*D_NET *5 0.000656826
*CONN
*P force_pdn I
*I *423:A I *D sky130_fd_sc_hd__clkbuf_1
*CAP
1 force_pdn 0.000302401
2 *423:A 0.000302401
3 *423:A force_pdnb 5.20236e-05
*RES
1 force_pdn *423:A 49.7405 
*END

*D_NET *6 0.000594716
*CONN
*P force_pdnb O
*I *441:X O *D sky130_fd_sc_hd__buf_2
*CAP
1 force_pdnb 0.000244739
2 *441:X 0.000244739
3 force_pdnb *23:15 5.32136e-05
4 force_pdnb *119:10 0
5 *421:A force_pdnb 0
6 *423:A force_pdnb 5.20236e-05
*RES
1 *441:X force_pdnb 47.8691 
*END

*D_NET *7 0.000600991
*CONN
*P force_short_oneshot I
*I *424:A I *D sky130_fd_sc_hd__buf_1
*CAP
1 force_short_oneshot 0.000300495
2 *424:A 0.000300495
*RES
1 force_short_oneshot *424:A 49.6355 
*END

*D_NET *8 0.00502039
*CONN
*P osc_ck I
*I *398:A I *D sky130_fd_sc_hd__clkbuf_16
*CAP
1 osc_ck 0.00211775
2 *398:A 0
3 *8:15 0.00211775
4 *8:15 *338:B1_N 6.72596e-05
5 *8:15 *362:A1 0.000129561
6 *8:15 *363:A1 0
7 *8:15 *370:A4 2.31353e-05
8 *8:15 *35:10 0.000169665
9 *8:15 *47:10 0.000204104
10 *8:15 *60:43 3.41019e-05
11 *8:15 *79:22 3.06987e-05
12 *8:15 *86:27 5.61611e-05
13 *8:15 *91:99 7.02081e-05
*RES
1 osc_ck *8:15 38.5383 
2 *8:15 *398:A 23 
*END

*D_NET *9 0.00223147
*CONN
*P osc_ena O
*I *429:X O *D sky130_fd_sc_hd__buf_2
*CAP
1 osc_ena 0.000832243
2 *429:X 0.000103071
3 *9:10 0.000935314
4 osc_ena por_timed_out 0.00025677
5 *9:10 *90:8 3.24564e-05
6 *9:10 *112:40 0
7 *421:A osc_ena 7.16204e-05
*RES
1 *429:X *9:10 47.7296 
2 *9:10 osc_ena 2.64693 
*END

*D_NET *10 0.000865746
*CONN
*P otrip[0] I
*I *425:A I *D sky130_fd_sc_hd__dlymetal6s2s_1
*CAP
1 otrip[0] 0.000432873
2 *425:A 0.000432873
3 *425:A otrip_decoded[6] 0
*RES
1 otrip[0] *425:A 47.4664 
*END

*D_NET *11 0.000857009
*CONN
*P otrip[1] I
*I *426:A I *D sky130_fd_sc_hd__dlymetal6s2s_1
*CAP
1 otrip[1] 0.000428504
2 *426:A 0.000428504
3 *426:A *427:A 0
*RES
1 otrip[1] *426:A 47.3214 
*END

*D_NET *12 0.00115101
*CONN
*P otrip[2] I
*I *427:A I *D sky130_fd_sc_hd__dlymetal6s2s_1
*CAP
1 otrip[2] 0.000575506
2 *427:A 0.000575506
3 *427:A otrip_decoded[1] 0
4 *426:A *427:A 0
*RES
1 otrip[2] *427:A 49.7036 
*END

*D_NET *13 0.00109354
*CONN
*P otrip_decoded[0] O
*I *430:X O *D sky130_fd_sc_hd__buf_2
*CAP
1 otrip_decoded[0] 0.000475789
2 *430:X 0.000475789
3 otrip_decoded[0] otrip_decoded[3] 0
4 otrip_decoded[0] otrip_decoded[7] 0
5 otrip_decoded[0] *105:10 0.00014196
*RES
1 *430:X otrip_decoded[0] 47.57 
*END

*D_NET *14 0.00190183
*CONN
*P otrip_decoded[1] O
*I *431:X O *D sky130_fd_sc_hd__buf_2
*CAP
1 otrip_decoded[1] 0.000672312
2 *431:X 0.000139427
3 *14:8 0.000811739
4 otrip_decoded[1] otrip_decoded[4] 0
5 otrip_decoded[1] *17:14 0
6 otrip_decoded[1] *100:10 8.4047e-05
7 otrip_decoded[1] *135:8 0
8 otrip_decoded[1] *135:22 0
9 otrip_decoded[1] *136:12 0.000194309
10 *427:A otrip_decoded[1] 0
*RES
1 *431:X *14:8 39.5743 
2 *14:8 otrip_decoded[1] 13.63 
*END

*D_NET *15 0.000954515
*CONN
*P otrip_decoded[2] O
*I *432:X O *D sky130_fd_sc_hd__buf_2
*CAP
1 otrip_decoded[2] 0.000477258
2 *432:X 0.000477258
3 otrip_decoded[2] otrip_decoded[4] 0
4 otrip_decoded[2] otrip_decoded[7] 0
5 otrip_decoded[2] *17:14 0
*RES
1 *432:X otrip_decoded[2] 47.86 
*END

*D_NET *16 0.00108977
*CONN
*P otrip_decoded[3] O
*I *433:X O *D sky130_fd_sc_hd__buf_2
*CAP
1 otrip_decoded[3] 0.000473903
2 *433:X 0.000473903
3 otrip_decoded[3] otrip_decoded[5] 0
4 otrip_decoded[3] *105:10 0.00014196
5 otrip_decoded[0] otrip_decoded[3] 0
*RES
1 *433:X otrip_decoded[3] 47.57 
*END

*D_NET *17 0.00172202
*CONN
*P otrip_decoded[4] O
*I *434:X O *D sky130_fd_sc_hd__buf_2
*CAP
1 otrip_decoded[4] 0.000216739
2 *434:X 0.000566391
3 *17:14 0.00078313
4 *17:14 *101:8 8.76088e-05
5 *17:14 *103:10 4.08641e-05
6 *17:14 *106:8 0
7 *17:14 *135:22 2.72882e-05
8 *17:14 *136:12 0
9 otrip_decoded[1] otrip_decoded[4] 0
10 otrip_decoded[1] *17:14 0
11 otrip_decoded[2] otrip_decoded[4] 0
12 otrip_decoded[2] *17:14 0
*RES
1 *434:X *17:14 48.6368 
2 *17:14 otrip_decoded[4] 5.0025 
*END

*D_NET *18 0.00108977
*CONN
*P otrip_decoded[5] O
*I *435:X O *D sky130_fd_sc_hd__buf_2
*CAP
1 otrip_decoded[5] 0.000473903
2 *435:X 0.000473903
3 otrip_decoded[5] otrip_decoded[6] 0
4 otrip_decoded[5] *105:10 0.00014196
5 otrip_decoded[3] otrip_decoded[5] 0
*RES
1 *435:X otrip_decoded[5] 47.57 
*END

*D_NET *19 0.00103748
*CONN
*P otrip_decoded[6] O
*I *436:X O *D sky130_fd_sc_hd__buf_2
*CAP
1 otrip_decoded[6] 0.000491235
2 *436:X 0.000491235
3 otrip_decoded[6] *105:10 5.50106e-05
4 otrip_decoded[5] otrip_decoded[6] 0
5 *425:A otrip_decoded[6] 0
*RES
1 *436:X otrip_decoded[6] 47.57 
*END

*D_NET *20 0.00118074
*CONN
*P otrip_decoded[7] O
*I *437:X O *D sky130_fd_sc_hd__buf_2
*CAP
1 otrip_decoded[7] 0.000497658
2 *437:X 0.000497658
3 otrip_decoded[7] *136:35 0.000185428
4 otrip_decoded[0] otrip_decoded[7] 0
5 otrip_decoded[2] otrip_decoded[7] 0
*RES
1 *437:X otrip_decoded[7] 48.0464 
*END

*D_NET *21 0.00197664
*CONN
*P por_timed_out O
*I *438:X O *D sky130_fd_sc_hd__buf_2
*CAP
1 por_timed_out 0.000795414
2 *438:X 0.000795414
3 por_timed_out *38:8 0
4 por_timed_out *112:66 2.98072e-05
5 por_timed_out *113:47 1.86176e-05
6 osc_ena por_timed_out 0.00025677
7 *422:A por_timed_out 8.06147e-05
*RES
1 *438:X por_timed_out 49.9386 
*END

*D_NET *22 0.00102347
*CONN
*P por_unbuf O
*I *439:X O *D sky130_fd_sc_hd__buf_2
*CAP
1 por_unbuf 0.000496732
2 *439:X 0.000496732
3 por_unbuf *363:B1 2.13733e-05
4 por_unbuf *368:A2 6.17437e-06
5 por_unbuf *407:A 2.45549e-06
*RES
1 *439:X por_unbuf 47.7979 
*END

*D_NET *23 0.0013854
*CONN
*P pwup_filt I
*I *428:A I *D sky130_fd_sc_hd__buf_1
*CAP
1 pwup_filt 0.000512773
2 *428:A 0
3 *23:15 0.000512773
4 *23:15 *316:A 0.000143655
5 *23:15 *378:CLK 0
6 *23:15 *53:10 0.00010018
7 force_pdnb *23:15 5.32136e-05
8 *421:A *23:15 6.28047e-05
*RES
1 pwup_filt *23:15 31.8171 
2 *23:15 *428:A 23 
*END

*D_NET *24 0.00106707
*CONN
*P startup_timed_out O
*I *440:X O *D sky130_fd_sc_hd__buf_2
*CAP
1 startup_timed_out 0.000118508
2 *440:X 0.000369823
3 *24:10 0.00048833
4 *24:10 *39:8 0
5 *422:A startup_timed_out 5.08354e-05
6 *422:A *24:10 3.95717e-05
*RES
1 *440:X *24:10 43.8932 
2 *24:10 startup_timed_out 8.50027 
*END

*D_NET *25 0.000965654
*CONN
*I *378:D I *D sky130_fd_sc_hd__dfrtp_1
*I *337:X O *D sky130_fd_sc_hd__or3b_1
*CAP
1 *378:D 0.000123443
2 *337:X 0.000281872
3 *25:10 0.000405316
4 *378:D *380:CLK 8.46456e-05
5 *25:10 *90:8 7.03766e-05
6 *25:10 *112:46 0
*RES
1 *337:X *25:10 42.4329 
2 *25:10 *378:D 40.5271 
*END

*D_NET *26 0.00120647
*CONN
*I *420:A I *D sky130_fd_sc_hd__dlygate4sd3_1
*I *339:Y O *D sky130_fd_sc_hd__a211oi_1
*CAP
1 *420:A 0
2 *339:Y 0.000104283
3 *26:6 0.000104283
4 *26:6 *339:A2 0.000322634
5 *26:6 *62:24 0.000592794
6 *26:6 *89:10 8.24729e-05
*RES
1 *339:Y *26:6 28.8621 
2 *26:6 *420:A 23 
*END

*D_NET *27 0.001058
*CONN
*I *380:D I *D sky130_fd_sc_hd__dfrtp_1
*I *342:Y O *D sky130_fd_sc_hd__o21bai_1
*CAP
1 *380:D 0
2 *342:Y 0.000333171
3 *27:10 0.000333171
4 *27:10 *337:A 4.2366e-05
5 *27:10 *337:C_N 1.94693e-05
6 *27:10 *342:A2 1.32314e-05
7 *27:10 *406:A 0.00014411
8 *27:10 *91:23 0.000141879
9 *27:10 *115:26 3.05997e-05
*RES
1 *342:Y *27:10 43.8621 
2 *27:10 *380:D 38 
*END

*D_NET *28 0.000562826
*CONN
*I *381:D I *D sky130_fd_sc_hd__dfrtp_1
*I *344:X O *D sky130_fd_sc_hd__o311a_1
*CAP
1 *381:D 0
2 *344:X 0.000177874
3 *28:10 0.000177874
4 *28:10 *64:20 0.000110922
5 *28:10 *94:16 5.41385e-05
6 *28:10 *115:16 4.20184e-05
*RES
1 *344:X *28:10 41.1279 
2 *28:10 *381:D 38 
*END

*D_NET *29 0.000616088
*CONN
*I *382:D I *D sky130_fd_sc_hd__dfrtp_1
*I *347:Y O *D sky130_fd_sc_hd__nor2_1
*CAP
1 *382:D 5.80245e-05
2 *347:Y 0.000143072
3 *29:10 0.000201097
4 *382:D *381:CLK 2.93747e-05
5 *382:D *382:CLK 8.82053e-06
6 *29:10 *347:B 5.37348e-06
7 *29:10 *65:33 8.62783e-05
8 *29:10 *77:10 8.4047e-05
*RES
1 *347:Y *29:10 40.2993 
2 *29:10 *382:D 38.6836 
*END

*D_NET *30 0.00130728
*CONN
*I *383:D I *D sky130_fd_sc_hd__dfrtp_1
*I *348:X O *D sky130_fd_sc_hd__xor2_1
*CAP
1 *383:D 0.000307778
2 *348:X 0.00034586
3 *30:8 0.000653638
4 *383:D *402:A 0
5 *383:D *112:10 0
*RES
1 *348:X *30:8 44.3386 
2 *30:8 *383:D 43.7793 
*END

*D_NET *31 0.000371706
*CONN
*I *384:D I *D sky130_fd_sc_hd__dfrtp_1
*I *350:X O *D sky130_fd_sc_hd__mux2_1
*CAP
1 *384:D 0
2 *350:X 0.000107648
3 *31:10 0.000107648
4 *31:10 *61:37 5.67058e-05
5 *31:10 *68:48 3.3746e-05
6 *31:10 *68:56 4.6318e-06
7 *31:10 *77:55 5.21127e-05
8 *31:10 *113:111 9.21347e-06
*RES
1 *350:X *31:10 40.175 
2 *31:10 *384:D 38 
*END

*D_NET *32 0.000884112
*CONN
*I *385:D I *D sky130_fd_sc_hd__dfrtp_1
*I *353:X O *D sky130_fd_sc_hd__o2bb2a_1
*CAP
1 *385:D 0
2 *353:X 0.000351905
3 *32:10 0.000351905
4 *32:10 *353:B1 0.000102482
5 *32:10 *68:79 5.47903e-05
6 *32:10 *80:10 2.30292e-05
*RES
1 *353:X *32:10 29.0279 
2 *32:10 *385:D 23 
*END

*D_NET *33 0.00110822
*CONN
*I *386:D I *D sky130_fd_sc_hd__dfrtp_1
*I *356:X O *D sky130_fd_sc_hd__a32o_1
*CAP
1 *386:D 0.000230925
2 *356:X 0.000158169
3 *33:8 0.000389095
4 *386:D *113:101 2.93747e-05
5 *33:8 *386:RESET_B 0.000181422
6 *33:8 *71:10 3.07161e-05
7 *33:8 *78:10 8.85189e-05
8 *33:8 *81:8 0
*RES
1 *356:X *33:8 42.7229 
2 *33:8 *386:D 41.9564 
*END

*D_NET *34 0.000491575
*CONN
*I *387:D I *D sky130_fd_sc_hd__dfrtp_1
*I *360:X O *D sky130_fd_sc_hd__o21ba_1
*CAP
1 *387:D 0
2 *360:X 0.000129472
3 *34:10 0.000129472
4 *34:10 *75:27 0.00010018
5 *34:10 *110:27 0
6 *34:10 *112:129 0.000114083
7 *34:10 *113:111 1.83667e-05
*RES
1 *360:X *34:10 40.6514 
2 *34:10 *387:D 38 
*END

*D_NET *35 0.000933642
*CONN
*I *388:D I *D sky130_fd_sc_hd__dfrtp_1
*I *362:X O *D sky130_fd_sc_hd__o32a_1
*CAP
1 *388:D 0
2 *362:X 0.000185012
3 *35:10 0.000185012
4 *35:10 *57:28 5.3304e-05
5 *35:10 *62:24 0
6 *35:10 *86:14 0.000168744
7 *35:10 *86:27 0.000171906
8 *8:15 *35:10 0.000169665
*RES
1 *362:X *35:10 42.9921 
2 *35:10 *388:D 38 
*END

*D_NET *36 0.000679576
*CONN
*I *389:D I *D sky130_fd_sc_hd__dfrtp_1
*I *366:X O *D sky130_fd_sc_hd__o2bb2a_1
*CAP
1 *389:D 0.000117705
2 *366:X 4.92458e-05
3 *36:8 0.00016695
4 *389:D *389:RESET_B 6.40928e-05
5 *36:8 *47:10 0.000141879
6 *36:8 *68:32 0.000139704
*RES
1 *366:X *36:8 39.9057 
2 *36:8 *389:D 40.0507 
*END

*D_NET *37 0.00282373
*CONN
*I *390:D I *D sky130_fd_sc_hd__dfrtp_1
*I *368:X O *D sky130_fd_sc_hd__a22o_1
*CAP
1 *390:D 0.000364931
2 *368:X 0.000574027
3 *37:10 0.000938958
4 *390:D *389:CLK 0.000342072
5 *390:D *390:CLK 3.71251e-05
6 *390:D *85:72 2.93432e-05
7 *37:10 *368:A2 3.50372e-05
8 *37:10 *389:RESET_B 0
9 *37:10 *85:72 0.000502237
10 *37:10 *113:72 0
*RES
1 *368:X *37:10 46.4721 
2 *37:10 *390:D 46.7414 
*END

*D_NET *38 0.0016125
*CONN
*I *391:D I *D sky130_fd_sc_hd__dfrtp_1
*I *372:X O *D sky130_fd_sc_hd__o21ba_1
*CAP
1 *391:D 9.80584e-05
2 *372:X 0.000351674
3 *38:8 0.000449733
4 *391:D *391:CLK 4.00259e-06
5 *391:D *413:A 3.71251e-05
6 *38:8 *76:10 6.32688e-05
7 *38:8 *76:12 0.000101504
8 *38:8 *76:14 6.07611e-06
9 *38:8 *112:81 0.000187996
10 *38:8 *112:94 8.85189e-05
11 *38:8 *113:47 0.000224544
12 por_timed_out *38:8 0
*RES
1 *372:X *38:8 46.2443 
2 *38:8 *391:D 39.595 
*END

*D_NET *39 0.000756013
*CONN
*I *392:D I *D sky130_fd_sc_hd__dfrtp_1
*I *373:X O *D sky130_fd_sc_hd__xor2_1
*CAP
1 *392:D 1.47919e-05
2 *373:X 0.000195175
3 *39:8 0.000209967
4 *392:D *392:CLK 1.10317e-05
5 *39:8 *87:10 0
6 *39:8 *87:21 0
7 *39:8 *108:8 0.00030457
8 *39:8 *122:10 0
9 *422:A *39:8 2.04774e-05
10 *24:10 *39:8 0
*RES
1 *373:X *39:8 43.075 
2 *39:8 *392:D 38.2123 
*END

*D_NET *40 0.000243344
*CONN
*I *393:D I *D sky130_fd_sc_hd__dfrtp_1
*I *376:X O *D sky130_fd_sc_hd__and2b_1
*CAP
1 *393:D 1.44311e-05
2 *376:X 4.48927e-05
3 *40:8 5.93238e-05
4 *393:D *393:CLK 1.07626e-05
5 *40:8 *394:RESET_B 2.5415e-05
6 *40:8 *76:110 8.85189e-05
*RES
1 *376:X *40:8 39.2014 
2 *40:8 *393:D 38.2071 
*END

*D_NET *41 0.000570746
*CONN
*I *394:D I *D sky130_fd_sc_hd__dfrtp_1
*I *377:X O *D sky130_fd_sc_hd__xor2_1
*CAP
1 *394:D 0.000102821
2 *377:X 0.000141654
3 *41:8 0.000244475
4 *394:D *394:CLK 8.1796e-05
5 *41:8 *51:8 0
*RES
1 *377:X *41:8 40.61 
2 *41:8 *394:D 40.0507 
*END

*D_NET *42 0.00289561
*CONN
*I *360:B1_N I *D sky130_fd_sc_hd__o21ba_1
*I *362:B1 I *D sky130_fd_sc_hd__o32a_1
*I *359:X O *D sky130_fd_sc_hd__o211a_1
*CAP
1 *360:B1_N 0.000318562
2 *362:B1 0.000208481
3 *359:X 5.61514e-05
4 *42:8 0.000583194
5 *360:B1_N *360:A1 0
6 *360:B1_N *388:RESET_B 0.000220087
7 *360:B1_N *405:A 0.000141954
8 *360:B1_N *75:27 8.10145e-05
9 *360:B1_N *111:70 2.5343e-05
10 *360:B1_N *112:28 0.000308039
11 *362:B1 *362:A2 0.000106928
12 *362:B1 *362:B2 5.50106e-05
13 *362:B1 *43:8 2.18409e-05
14 *362:B1 *60:53 0.000224557
15 *362:B1 *91:99 8.22585e-05
16 *362:B1 *111:70 0.000197082
17 *42:8 *60:53 0.000183572
18 *42:8 *111:70 8.15327e-05
*RES
1 *359:X *42:8 40.4339 
2 *42:8 *362:B1 44.7011 
3 *42:8 *360:B1_N 46.2754 
*END

*D_NET *43 0.00154042
*CONN
*I *362:A3 I *D sky130_fd_sc_hd__o32a_1
*I *361:Y O *D sky130_fd_sc_hd__nand2_1
*CAP
1 *362:A3 0
2 *361:Y 0.000233694
3 *43:8 0.000233694
4 *43:8 *362:A2 3.03895e-05
5 *43:8 *362:B2 0.000136743
6 *43:8 *57:28 0.000597346
7 *43:8 *60:43 3.85196e-05
8 *43:8 *74:26 0.000219383
9 *43:8 *83:29 2.88036e-05
10 *362:B1 *43:8 2.18409e-05
*RES
1 *361:Y *43:8 30.3121 
2 *43:8 *362:A3 23 
*END

*D_NET *44 0.00120356
*CONN
*I *365:A I *D sky130_fd_sc_hd__or2_1
*I *363:Y O *D sky130_fd_sc_hd__a21oi_1
*CAP
1 *365:A 1.08631e-05
2 *363:Y 0.000209841
3 *44:8 0.000220705
4 *365:A *366:B1 5.50106e-05
5 *365:A *68:18 5.67058e-05
6 *44:8 *363:A2 0.00042646
7 *44:8 *368:A2 9.03157e-05
8 *44:8 *61:57 0.000133656
*RES
1 *363:Y *44:8 44.4836 
2 *44:8 *365:A 38.6214 
*END

*D_NET *45 0.00396379
*CONN
*I *369:D I *D sky130_fd_sc_hd__and4_1
*I *367:B I *D sky130_fd_sc_hd__xor2_1
*I *365:B I *D sky130_fd_sc_hd__or2_1
*I *364:X O *D sky130_fd_sc_hd__and2_1
*CAP
1 *369:D 0.000144254
2 *367:B 0
3 *365:B 0.000187858
4 *364:X 0
5 *45:33 0.0008902
6 *45:6 0.000933803
7 *365:B *323:A 0.000160191
8 *365:B *61:29 0.000107213
9 *365:B *61:57 0.000110922
10 *365:B *77:55 0
11 *369:D *369:A 5.31757e-05
12 *369:D *369:C 2.4754e-05
13 *369:D *377:A 0.000274078
14 *369:D *48:10 2.45549e-06
15 *369:D *112:111 5.50049e-05
16 *45:33 *338:B1_N 5.55172e-05
17 *45:33 *369:A 5.50049e-05
18 *45:33 *369:C 0
19 *45:33 *370:A4 0.000197408
20 *45:33 *47:10 0.000145827
21 *45:33 *61:29 1.66821e-05
22 *45:33 *62:8 0.000179473
23 *45:33 *62:24 2.05503e-05
24 *45:33 *74:42 0.000219938
25 *45:33 *77:55 1.22851e-05
26 *45:33 *79:16 7.43025e-06
27 *45:33 *79:22 4.52304e-05
28 *45:33 *92:78 6.45323e-05
*RES
1 *364:X *45:6 38 
2 *45:6 *365:B 41.5836 
3 *45:6 *45:33 40.0109 
4 *45:33 *367:B 23 
5 *45:33 *369:D 27.8057 
*END

*D_NET *46 0.000588267
*CONN
*I *366:A2_N I *D sky130_fd_sc_hd__o2bb2a_1
*I *365:X O *D sky130_fd_sc_hd__or2_1
*CAP
1 *366:A2_N 0.000218067
2 *365:X 0.000218067
3 *366:A2_N *68:18 0.000152134
*RES
1 *365:X *366:A2_N 49.0036 
*END

*D_NET *47 0.00158711
*CONN
*I *368:B2 I *D sky130_fd_sc_hd__a22o_1
*I *367:X O *D sky130_fd_sc_hd__xor2_1
*CAP
1 *368:B2 0
2 *367:X 0.000402416
3 *47:10 0.000402416
4 *47:10 *363:A2 0
5 *47:10 *68:32 0.000206524
6 *47:10 *79:16 8.39444e-05
7 *47:10 *85:16 0
8 *47:10 *85:72 0
9 *8:15 *47:10 0.000204104
10 *36:8 *47:10 0.000141879
11 *45:33 *47:10 0.000145827
*RES
1 *367:X *47:10 48.1707 
2 *47:10 *368:B2 38 
*END

*D_NET *48 0.00179888
*CONN
*I *372:A2 I *D sky130_fd_sc_hd__o21ba_1
*I *369:X O *D sky130_fd_sc_hd__and4_1
*CAP
1 *372:A2 2.4297e-05
2 *369:X 0.00032919
3 *48:10 0.000353486
4 *372:A2 *374:D 9.84794e-05
5 *372:A2 *50:24 9.67842e-05
6 *48:10 *369:C 0.000108559
7 *48:10 *374:C 0.000145936
8 *48:10 *377:A 7.30497e-06
9 *48:10 *394:RESET_B 0.000192087
10 *48:10 *111:8 3.62323e-05
11 *48:10 *113:47 0.000404066
12 *369:D *48:10 2.45549e-06
*RES
1 *369:X *48:10 46.99 
2 *48:10 *372:A2 39.0979 
*END

*D_NET *49 0.00526826
*CONN
*I *375:A4 I *D sky130_fd_sc_hd__a41o_1
*I *371:C I *D sky130_fd_sc_hd__and3_1
*I *374:D I *D sky130_fd_sc_hd__and4_1
*I *370:X O *D sky130_fd_sc_hd__a41o_1
*CAP
1 *375:A4 7.8664e-05
2 *371:C 0.000117369
3 *374:D 0.000363862
4 *370:X 7.53576e-05
5 *49:45 0.000623588
6 *49:10 0.00108992
7 *49:8 0.000373865
8 *371:C *86:14 5.50106e-05
9 *371:C *112:34 0.000113656
10 *374:D *372:A1 2.3853e-05
11 *374:D *372:B1_N 5.90675e-06
12 *374:D *373:B 0.00021193
13 *374:D *374:C 0.00037899
14 *374:D *50:24 4.927e-05
15 *374:D *107:10 1.01436e-05
16 *375:A4 *324:C_N 0.000123934
17 *375:A4 *324:D_N 3.91386e-05
18 *375:A4 *111:34 7.1349e-05
19 *375:A4 *112:111 9.75779e-05
20 *49:8 *60:26 0
21 *49:8 *111:34 3.70094e-05
22 *49:8 *112:111 2.93666e-05
23 *49:10 *374:C 0
24 *49:10 *111:34 0.000262187
25 *49:10 *111:38 2.47015e-05
26 *49:10 *112:111 2.76611e-06
27 *49:45 *379:CLK 7.53384e-06
28 *49:45 *379:D 0.000103405
29 *49:45 *86:14 1.27581e-05
30 *49:45 *107:10 0.000299178
31 *49:45 *111:38 0.000334558
32 *49:45 *113:33 3.67805e-05
33 *49:45 *113:37 2.97638e-05
34 *49:45 *126:10 8.63838e-05
35 *372:A2 *374:D 9.84794e-05
*RES
1 *370:X *49:8 39.5536 
2 *49:8 *49:10 3.8425 
3 *49:10 *374:D 47.5596 
4 *49:10 *49:45 41.3411 
5 *49:45 *371:C 40.3614 
6 *49:8 *375:A4 41.0243 
*END

*D_NET *50 0.0037604
*CONN
*I *372:B1_N I *D sky130_fd_sc_hd__o21ba_1
*I *373:B I *D sky130_fd_sc_hd__xor2_1
*I *371:X O *D sky130_fd_sc_hd__and3_1
*CAP
1 *372:B1_N 2.14194e-05
2 *373:B 0.000297533
3 *371:X 0.000241756
4 *50:24 0.000709814
5 *50:18 0.000716599
6 *50:10 0.000567493
7 *372:B1_N *372:A1 0
8 *50:10 *86:14 0.000300098
9 *50:10 *111:51 5.73309e-05
10 *50:10 *112:34 5.50049e-05
11 *50:10 *126:10 5.09885e-05
12 *50:18 *388:CLK 3.7122e-06
13 *50:18 *75:12 0.000112446
14 *50:18 *86:14 0.000101348
15 *50:18 *111:38 0
16 *50:24 *325:A 5.50106e-05
17 *50:24 *372:A1 9.00509e-05
18 *50:24 *75:12 1.59094e-05
19 *372:A2 *50:24 9.67842e-05
20 *374:D *372:B1_N 5.90675e-06
21 *374:D *373:B 0.00021193
22 *374:D *50:24 4.927e-05
*RES
1 *371:X *50:10 44.0486 
2 *50:10 *50:18 35.365 
3 *50:18 *50:24 22.6643 
4 *50:24 *373:B 28.3857 
5 *50:24 *372:B1_N 23.4971 
*END

*D_NET *51 0.00113811
*CONN
*I *376:A_N I *D sky130_fd_sc_hd__and2b_1
*I *377:B I *D sky130_fd_sc_hd__xor2_1
*I *374:X O *D sky130_fd_sc_hd__and4_1
*CAP
1 *376:A_N 2.33465e-05
2 *377:B 2.95294e-05
3 *374:X 0.000377908
4 *51:10 5.28759e-05
5 *51:8 0.000377908
6 *376:A_N *377:A 5.50106e-05
7 *377:B *377:A 5.50049e-05
8 *51:8 *52:8 0
9 *51:8 *76:99 0
10 *51:8 *76:110 0
11 *51:8 *87:21 0.000166522
12 *51:8 *88:8 0
13 *41:8 *51:8 0
*RES
1 *374:X *51:8 45.54 
2 *51:8 *51:10 15 
3 *51:10 *377:B 23.6214 
4 *51:10 *376:A_N 23.6214 
*END

*D_NET *52 0.000656331
*CONN
*I *376:B I *D sky130_fd_sc_hd__and2b_1
*I *375:X O *D sky130_fd_sc_hd__a41o_1
*CAP
1 *376:B 0
2 *375:X 0.000163558
3 *52:8 0.000163558
4 *52:8 *76:99 0.000168754
5 *52:8 *76:110 0.00016046
6 *51:8 *52:8 0
*RES
1 *375:X *52:8 42.3707 
2 *52:8 *376:B 38 
*END

*D_NET *53 0.000858179
*CONN
*I *334:A2 I *D sky130_fd_sc_hd__a31o_1
*I *316:Y O *D sky130_fd_sc_hd__inv_2
*CAP
1 *334:A2 0
2 *316:Y 0.00032273
3 *53:10 0.00032273
4 *53:10 *334:A1 0
5 *53:10 *118:10 0.000112538
6 *53:10 *137:15 0
7 *421:A *53:10 0
8 *23:15 *53:10 0.00010018
*RES
1 *316:Y *53:10 43.8207 
2 *53:10 *334:A2 38 
*END

*D_NET *54 0.000768076
*CONN
*I *318:B I *D sky130_fd_sc_hd__and3b_1
*I *317:X O *D sky130_fd_sc_hd__and4bb_1
*CAP
1 *318:B 0
2 *317:X 0.000231413
3 *54:10 0.000231413
4 *54:10 *345:A1 1.01436e-05
5 *54:10 *359:A1 1.19796e-05
6 *54:10 *92:35 1.69668e-05
7 *54:10 *110:27 5.94125e-05
8 *54:10 *111:115 0.000132231
9 *54:10 *115:10 7.45175e-05
*RES
1 *317:X *54:10 42.06 
2 *54:10 *318:B 38 
*END

*D_NET *55 0.00232775
*CONN
*I *344:C1 I *D sky130_fd_sc_hd__o311a_1
*I *319:Y O *D sky130_fd_sc_hd__inv_2
*CAP
1 *344:C1 0.00026
2 *319:Y 0.000358626
3 *55:8 0.000618626
4 *344:C1 *344:B1 5.90675e-06
5 *344:C1 *65:33 7.44315e-05
6 *344:C1 *96:8 1.94693e-05
7 *55:8 *66:14 2.1199e-05
8 *55:8 *114:36 4.6318e-06
9 *55:8 *114:50 4.74809e-05
10 *55:8 *114:63 0.000293847
11 *55:8 *130:14 0.000623535
*RES
1 *319:Y *55:8 47.6529 
2 *55:8 *344:C1 41.8529 
*END

*D_NET *56 0.00071126
*CONN
*I *324:A I *D sky130_fd_sc_hd__or4bb_1
*I *320:X O *D sky130_fd_sc_hd__or3b_1
*CAP
1 *324:A 2.64939e-05
2 *320:X 0.000132362
3 *56:10 0.000158856
4 *324:A *324:D_N 5.79559e-05
5 *324:A *60:12 6.17437e-06
6 *324:A *60:26 0.000102389
7 *56:10 *324:D_N 8.71559e-05
8 *56:10 *370:A1 5.56356e-05
9 *56:10 *59:26 1.12863e-05
10 *56:10 *60:26 1.35764e-05
11 *56:10 *86:27 5.93746e-05
*RES
1 *320:X *56:10 40.5271 
2 *56:10 *324:A 39.0979 
*END

*D_NET *57 0.00378821
*CONN
*I *324:B I *D sky130_fd_sc_hd__or4bb_1
*I *321:X O *D sky130_fd_sc_hd__or4b_1
*CAP
1 *324:B 0
2 *321:X 0.000188045
3 *57:28 0.000980828
4 *57:10 0.00116887
5 *57:10 *351:A1 4.96717e-05
6 *57:10 *112:129 0.000218943
7 *57:10 *113:111 0.000110116
8 *57:28 *324:C_N 0
9 *57:28 *362:A2 6.58415e-06
10 *57:28 *60:26 0.000210679
11 *57:28 *60:43 0.000136961
12 *57:28 *74:16 1.98161e-05
13 *57:28 *74:26 2.32101e-05
14 *57:28 *80:10 2.38288e-05
15 *35:10 *57:28 5.3304e-05
16 *43:8 *57:28 0.000597346
*RES
1 *321:X *57:10 42.06 
2 *57:10 *57:28 31.385 
3 *57:28 *324:B 23 
*END

*D_NET *58 0.00213634
*CONN
*I *324:C_N I *D sky130_fd_sc_hd__or4bb_1
*I *374:B I *D sky130_fd_sc_hd__and4_1
*I *322:X O *D sky130_fd_sc_hd__and2_1
*CAP
1 *324:C_N 0.000353532
2 *374:B 0
3 *322:X 0.000221012
4 *58:12 8.29412e-05
5 *58:6 0.000657485
6 *324:C_N *375:A1 2.32101e-05
7 *324:C_N *375:B1 9.41704e-05
8 *324:C_N *112:94 1.76557e-05
9 *324:C_N *112:111 3.66886e-05
10 *58:6 *322:B 0.00011639
11 *58:6 *375:A1 4.04303e-05
12 *58:6 *375:B1 5.50049e-05
13 *58:6 *412:A 5.67058e-05