*SPEF "ieee 1481-1999"
*DESIGN "por_dig"
*DATE "08:20:37 Monday April 15, 2024"
*VENDOR "The OpenROAD Project"
*PROGRAM "OpenROAD"
*VERSION "0889970d1790a2617e69f253221b8bd7626e51dc"
*DESIGN_FLOW "NAME_SCOPE LOCAL" "PIN_CAP NONE"
*DIVIDER /
*DELIMITER :
*BUS_DELIMITER []
*T_UNIT 1 NS
*C_UNIT 1 PF
*R_UNIT 1 OHM
*L_UNIT 1 HENRY

*NAME_MAP
*3 force_dis_rc_osc
*4 force_ena_rc_osc
*5 force_pdn
*6 force_pdnb
*7 force_short_oneshot
*8 osc_ck
*9 osc_ena
*10 otrip[0]
*11 otrip[1]
*12 otrip[2]
*13 otrip_decoded[0]
*14 otrip_decoded[1]
*15 otrip_decoded[2]
*16 otrip_decoded[3]
*17 otrip_decoded[4]
*18 otrip_decoded[5]
*19 otrip_decoded[6]
*20 otrip_decoded[7]
*21 por_timed_out
*22 por_unbuf
*23 pwup_filt
*24 startup_timed_out
*25 _000_
*26 _001_
*27 _002_
*28 _003_
*29 _004_
*30 _005_
*31 _006_
*32 _007_
*33 _008_
*34 _009_
*35 _010_
*36 _011_
*37 _012_
*38 _013_
*39 _014_
*40 _015_
*41 _016_
*42 _017_
*43 _018_
*44 _019_
*45 _020_
*46 _021_
*47 _022_
*48 _023_
*49 _024_
*50 _025_
*51 _026_
*52 _027_
*53 _028_
*54 _029_
*55 _030_
*56 _031_
*57 _032_
*58 _033_
*59 _034_
*60 _035_
*61 _036_
*62 _037_
*63 _038_
*64 _039_
*65 _040_
*66 _041_
*67 _042_
*68 _043_
*69 _044_
*70 _045_
*71 _046_
*72 _047_
*73 _048_
*74 _049_
*75 clknet_0_osc_ck
*76 clknet_1_0__leaf_osc_ck
*77 clknet_1_1__leaf_osc_ck
*78 cnt_por\[0\]
*79 cnt_por\[10\]
*80 cnt_por\[1\]
*81 cnt_por\[2\]
*82 cnt_por\[3\]
*83 cnt_por\[4\]
*84 cnt_por\[5\]
*85 cnt_por\[6\]
*86 cnt_por\[7\]
*87 cnt_por\[8\]
*88 cnt_por\[9\]
*89 cnt_rsb
*90 cnt_rsb_stg1
*91 cnt_st\[0\]
*92 cnt_st\[1\]
*93 cnt_st\[2\]
*94 cnt_st\[3\]
*95 cnt_st\[4\]
*96 cnt_st\[5\]
*97 net1
*98 net10
*99 net11
*100 net12
*101 net13
*102 net14
*103 net15
*104 net16
*105 net17
*106 net18
*107 net19
*108 net2
*109 net20
*110 net21
*111 net22
*112 net23
*113 net24
*114 net25
*115 net26
*116 net27
*117 net28
*118 net29
*119 net3
*120 net30
*121 net31
*122 net32
*123 net33
*124 net34
*125 net35
*126 net36
*127 net37
*128 net38
*129 net39
*130 net4
*131 net40
*132 net41
*133 net42
*134 net5
*135 net6
*136 net7
*137 net8
*138 net9
*139 FILLER_0_0_15
*140 FILLER_0_0_27
*141 FILLER_0_0_3
*142 FILLER_0_0_39
*143 FILLER_0_0_57
*144 FILLER_0_0_63
*145 FILLER_0_0_70
*146 FILLER_0_0_77
*147 FILLER_0_0_85
*148 FILLER_0_0_97
*149 FILLER_0_10_80
*150 FILLER_0_10_93
*151 FILLER_0_11_25
*152 FILLER_0_11_3
*153 FILLER_0_11_37
*154 FILLER_0_11_60
*155 FILLER_0_11_89
*156 FILLER_0_11_97
*157 FILLER_0_12_23
*158 FILLER_0_12_56
*159 FILLER_0_12_73
*160 FILLER_0_12_82
*161 FILLER_0_12_85
*162 FILLER_0_12_97
*163 FILLER_0_13_20
*164 FILLER_0_13_28
*165 FILLER_0_13_3
*166 FILLER_0_13_43
*167 FILLER_0_13_54
*168 FILLER_0_13_57
*169 FILLER_0_13_83
*170 FILLER_0_13_95
*171 FILLER_0_14_3
*172 FILLER_0_14_37
*173 FILLER_0_14_53
*174 FILLER_0_14_7
*175 FILLER_0_14_83
*176 FILLER_0_14_85
*177 FILLER_0_14_97
*178 FILLER_0_15_11
*179 FILLER_0_15_3
*180 FILLER_0_15_85
*181 FILLER_0_15_97
*182 FILLER_0_16_15
*183 FILLER_0_16_27
*184 FILLER_0_16_29
*185 FILLER_0_16_3
*186 FILLER_0_16_37
*187 FILLER_0_16_50
*188 FILLER_0_16_65
*189 FILLER_0_16_77
*190 FILLER_0_16_83
*191 FILLER_0_16_85
*192 FILLER_0_16_97
*193 FILLER_0_1_15
*194 FILLER_0_1_27
*195 FILLER_0_1_3
*196 FILLER_0_1_46
*197 FILLER_0_1_64
*198 FILLER_0_1_76
*199 FILLER_0_1_88
*200 FILLER_0_1_96
*201 FILLER_0_2_18
*202 FILLER_0_2_26
*203 FILLER_0_2_29
*204 FILLER_0_2_35
*205 FILLER_0_2_42
*206 FILLER_0_2_55
*207 FILLER_0_2_6
*208 FILLER_0_2_67
*209 FILLER_0_2_79
*210 FILLER_0_2_83
*211 FILLER_0_2_85
*212 FILLER_0_2_97
*213 FILLER_0_3_13
*214 FILLER_0_3_25
*215 FILLER_0_3_31
*216 FILLER_0_3_38
*217 FILLER_0_3_48
*218 FILLER_0_3_53
*219 FILLER_0_3_57
*220 FILLER_0_3_61
*221 FILLER_0_3_69
*222 FILLER_0_3_81
*223 FILLER_0_3_93
*224 FILLER_0_4_23
*225 FILLER_0_4_27
*226 FILLER_0_4_50
*227 FILLER_0_4_64
*228 FILLER_0_4_77
*229 FILLER_0_4_83
*230 FILLER_0_4_85
*231 FILLER_0_4_97
*232 FILLER_0_5_14
*233 FILLER_0_5_6
*234 FILLER_0_5_85
*235 FILLER_0_5_97
*236 FILLER_0_6_27
*237 FILLER_0_6_43
*238 FILLER_0_6_85
*239 FILLER_0_6_93
*240 FILLER_0_7_3
*241 FILLER_0_7_44
*242 FILLER_0_7_53
*243 FILLER_0_7_78
*244 FILLER_0_7_90
*245 FILLER_0_7_98
*246 FILLER_0_8_27
*247 FILLER_0_8_82
*248 FILLER_0_8_90
*249 FILLER_0_8_98
*250 FILLER_0_9_7
*251 FILLER_0_9_92
*252 FILLER_0_9_98
*253 PHY_EDGE_ROW_0_Left_17
*254 PHY_EDGE_ROW_0_Right_0
*255 PHY_EDGE_ROW_10_Left_27
*256 PHY_EDGE_ROW_10_Right_10
*257 PHY_EDGE_ROW_11_Left_28
*258 PHY_EDGE_ROW_11_Right_11
*259 PHY_EDGE_ROW_12_Left_29
*260 PHY_EDGE_ROW_12_Right_12
*261 PHY_EDGE_ROW_13_Left_30
*262 PHY_EDGE_ROW_13_Right_13
*263 PHY_EDGE_ROW_14_Left_31
*264 PHY_EDGE_ROW_14_Right_14
*265 PHY_EDGE_ROW_15_Left_32
*266 PHY_EDGE_ROW_15_Right_15
*267 PHY_EDGE_ROW_16_Left_33
*268 PHY_EDGE_ROW_16_Right_16
*269 PHY_EDGE_ROW_1_Left_18
*270 PHY_EDGE_ROW_1_Right_1
*271 PHY_EDGE_ROW_2_Left_19
*272 PHY_EDGE_ROW_2_Right_2
*273 PHY_EDGE_ROW_3_Left_20
*274 PHY_EDGE_ROW_3_Right_3
*275 PHY_EDGE_ROW_4_Left_21
*276 PHY_EDGE_ROW_4_Right_4
*277 PHY_EDGE_ROW_5_Left_22
*278 PHY_EDGE_ROW_5_Right_5
*279 PHY_EDGE_ROW_6_Left_23
*280 PHY_EDGE_ROW_6_Right_6
*281 PHY_EDGE_ROW_7_Left_24
*282 PHY_EDGE_ROW_7_Right_7
*283 PHY_EDGE_ROW_8_Left_25
*284 PHY_EDGE_ROW_8_Right_8
*285 PHY_EDGE_ROW_9_Left_26
*286 PHY_EDGE_ROW_9_Right_9
*287 TAP_TAPCELL_ROW_0_34
*288 TAP_TAPCELL_ROW_0_35
*289 TAP_TAPCELL_ROW_0_36
*290 TAP_TAPCELL_ROW_10_50
*291 TAP_TAPCELL_ROW_10_51
*292 TAP_TAPCELL_ROW_11_52
*293 TAP_TAPCELL_ROW_12_53
*294 TAP_TAPCELL_ROW_12_54
*295 TAP_TAPCELL_ROW_13_55
*296 TAP_TAPCELL_ROW_14_56
*297 TAP_TAPCELL_ROW_14_57
*298 TAP_TAPCELL_ROW_15_58
*299 TAP_TAPCELL_ROW_16_59
*300 TAP_TAPCELL_ROW_16_60
*301 TAP_TAPCELL_ROW_16_61
*302 TAP_TAPCELL_ROW_1_37
*303 TAP_TAPCELL_ROW_2_38
*304 TAP_TAPCELL_ROW_2_39
*305 TAP_TAPCELL_ROW_3_40
*306 TAP_TAPCELL_ROW_4_41
*307 TAP_TAPCELL_ROW_4_42
*308 TAP_TAPCELL_ROW_5_43
*309 TAP_TAPCELL_ROW_6_44
*310 TAP_TAPCELL_ROW_6_45
*311 TAP_TAPCELL_ROW_7_46
*312 TAP_TAPCELL_ROW_8_47
*313 TAP_TAPCELL_ROW_8_48
*314 TAP_TAPCELL_ROW_9_49
*315 _050_
*316 _051_
*317 _052_
*318 _053_
*319 _054_
*320 _055_
*321 _056_
*322 _057_
*323 _058_
*324 _059_
*325 _060_
*326 _061_
*327 _062_
*328 _063_
*329 _064_
*330 _065_
*331 _066_
*332 _067_
*333 _068_
*334 _069_
*335 _070_
*336 _071_
*337 _072_
*338 _073_
*339 _074_
*340 _075_
*341 _076_
*342 _077_
*343 _078_
*344 _079_
*345 _080_
*346 _081_
*347 _082_
*348 _083_
*349 _084_
*350 _085_
*351 _086_
*352 _087_
*353 _088_
*354 _089_
*355 _090_
*356 _091_
*357 _092_
*358 _093_
*359 _094_
*360 _095_
*361 _096_
*362 _097_
*363 _098_
*364 _099_
*365 _100_
*366 _101_
*367 _102_
*368 _103_
*369 _104_
*370 _105_
*371 _106_
*372 _107_
*373 _108_
*374 _109_
*375 _110_
*376 _111_
*377 _112_
*378 _113_
*379 _114_
*380 _115_
*381 _116_
*382 _117_
*383 _118_
*384 _119_
*385 _120_
*386 _121_
*387 _122_
*388 _123_
*389 _124_
*390 _125_
*391 _126_
*392 _127_
*393 _128_
*394 _129_
*395 _130_
*396 _130__27
*397 _131_
*398 clkbuf_0_osc_ck
*399 clkbuf_1_0__f_osc_ck
*400 clkbuf_1_1__f_osc_ck
*401 fanout22
*402 fanout23
*403 fanout24
*404 fanout25
*405 fanout26
*406 hold1
*407 hold10
*408 hold11
*409 hold12
*410 hold13
*411 hold14
*412 hold15
*413 hold2
*414 hold3
*415 hold4
*416 hold5
*417 hold6
*418 hold7
*419 hold8
*420 hold9
*421 input1
*422 input2
*423 input3
*424 input4
*425 input5
*426 input6
*427 input7
*428 input8
*429 output10
*430 output11
*431 output12
*432 output13
*433 output14
*434 output15
*435 output16
*436 output17
*437 output18
*438 output19
*439 output20
*440 output21
*441 output9

*PORTS
force_dis_rc_osc I
force_ena_rc_osc I
force_pdn I
force_pdnb O
force_short_oneshot I
osc_ck I
osc_ena O
otrip[0] I
otrip[1] I
otrip[2] I
otrip_decoded[0] O
otrip_decoded[1] O
otrip_decoded[2] O
otrip_decoded[3] O
otrip_decoded[4] O
otrip_decoded[5] O
otrip_decoded[6] O
otrip_decoded[7] O
por_timed_out O
por_unbuf O
pwup_filt I
startup_timed_out O

*D_NET *3 0.000611625
*CONN
*P force_dis_rc_osc I
*I *421:A I *D sky130_fd_sc_hd__clkbuf_1
*CAP
1 force_dis_rc_osc 0.00023483
2 *421:A 0.00023483
3 *421:A force_pdnb 0
4 *421:A osc_ena 7.602e-05
5 *421:A *334:A2 0
6 *421:A *428:A 6.59446e-05
7 *421:A *137:15 0
*RES
1 force_dis_rc_osc *421:A 19.3371 
*END

*D_NET *4 0.000623129
*CONN
*P force_ena_rc_osc I
*I *422:A I *D sky130_fd_sc_hd__clkbuf_1
*CAP
1 force_ena_rc_osc 0.000196354
2 *422:A 0.000196354
3 *422:A por_timed_out 8.57347e-05
4 *422:A startup_timed_out 9.36138e-05
5 *422:A *334:B1 3.09981e-05
6 *422:A *392:D 2.00751e-05
*RES
1 force_ena_rc_osc *422:A 19.3371 
*END

*D_NET *5 0.000613245
*CONN
*P force_pdn I
*I *423:A I *D sky130_fd_sc_hd__clkbuf_1
*CAP
1 force_pdn 0.000280447
2 *423:A 0.000280447
3 *423:A force_pdnb 5.23501e-05
*RES
1 force_pdn *423:A 20.4142 
*END

*D_NET *6 0.000568011
*CONN
*P force_pdnb O
*I *441:X O *D sky130_fd_sc_hd__buf_2
*CAP
1 force_pdnb 0.000229534
2 *441:X 0.000229534
3 force_pdnb *315:A 0
4 force_pdnb *428:A 5.65933e-05
5 *421:A force_pdnb 0
6 *423:A force_pdnb 5.23501e-05
*RES
1 *441:X force_pdnb 18.8021 
*END

*D_NET *7 0.000562701
*CONN
*P force_short_oneshot I
*I *424:A I *D sky130_fd_sc_hd__buf_1
*CAP
1 force_short_oneshot 0.000281351
2 *424:A 0.000281351
*RES
1 force_short_oneshot *424:A 20.3346 
*END

*D_NET *8 0.00455198
*CONN
*P osc_ck I
*I *398:A I *D sky130_fd_sc_hd__clkbuf_16
*CAP
1 osc_ck 0.00190909
2 *398:A 0.00190909
3 *398:A *320:C_N 3.23634e-05
4 *398:A *338:A1 6.81133e-05
5 *398:A *338:B1_N 6.56734e-05
6 *398:A *359:B1 3.58899e-05
7 *398:A *362:A1 0.000116921
8 *398:A *363:A1 0
9 *398:A *368:B2 0.000184838
10 *398:A *370:A4 2.29949e-05
11 *398:A *388:D 0.00015304
12 *398:A *86:27 5.39552e-05
*RES
1 osc_ck *398:A 30.5071 
*END

*D_NET *9 0.00214395
*CONN
*P osc_ena O
*I *429:X O *D sky130_fd_sc_hd__buf_2
*CAP
1 osc_ena 0.000880962
2 *429:X 0.000880962
3 osc_ena por_timed_out 0.000272754
4 osc_ena *413:A 3.32558e-05
5 osc_ena *112:40 0
6 *421:A osc_ena 7.602e-05
*RES
1 *429:X osc_ena 20.9226 
*END

*D_NET *10 0.000818165
*CONN
*P otrip[0] I
*I *425:A I *D sky130_fd_sc_hd__dlymetal6s2s_1
*CAP
1 otrip[0] 0.000409083
2 *425:A 0.000409083
3 *425:A otrip_decoded[6] 0
*RES
1 otrip[0] *425:A 21.9607 
*END

*D_NET *11 0.000812096
*CONN
*P otrip[1] I
*I *426:A I *D sky130_fd_sc_hd__dlymetal6s2s_1
*CAP
1 otrip[1] 0.000406048
2 *426:A 0.000406048
3 *426:A *427:A 0
*RES
1 otrip[1] *426:A 21.8357 
*END

*D_NET *12 0.00108316
*CONN
*P otrip[2] I
*I *427:A I *D sky130_fd_sc_hd__dlymetal6s2s_1
*CAP
1 otrip[2] 0.000541581
2 *427:A 0.000541581
3 *427:A otrip_decoded[1] 0
4 *426:A *427:A 0
*RES
1 otrip[2] *427:A 23.8893 
*END

*D_NET *13 0.00104223
*CONN
*P otrip_decoded[0] O
*I *430:X O *D sky130_fd_sc_hd__buf_2
*CAP
1 otrip_decoded[0] 0.000449686
2 *430:X 0.000449686
3 otrip_decoded[0] otrip_decoded[3] 0
4 otrip_decoded[0] otrip_decoded[7] 0
5 otrip_decoded[0] *436:A 0.000142856
*RES
1 *430:X otrip_decoded[0] 22.05 
*END

*D_NET *14 0.00172653
*CONN
*P otrip_decoded[1] O
*I *431:X O *D sky130_fd_sc_hd__buf_2
*CAP
1 otrip_decoded[1] 0.000737189
2 *431:X 0.000737189
3 otrip_decoded[1] otrip_decoded[4] 0
4 otrip_decoded[1] *330:A 0
5 otrip_decoded[1] *431:A 7.6644e-05
6 otrip_decoded[1] *135:12 0
7 otrip_decoded[1] *136:12 0.000175512
8 *427:A otrip_decoded[1] 0
*RES
1 *431:X otrip_decoded[1] 26.9071 
*END

*D_NET *15 0.000897412
*CONN
*P otrip_decoded[2] O
*I *432:X O *D sky130_fd_sc_hd__buf_2
*CAP
1 otrip_decoded[2] 0.000448706
2 *432:X 0.000448706
3 otrip_decoded[2] otrip_decoded[4] 0
4 otrip_decoded[2] otrip_decoded[7] 0
*RES
1 *432:X otrip_decoded[2] 22.3 
*END

*D_NET *16 0.00103762
*CONN
*P otrip_decoded[3] O
*I *433:X O *D sky130_fd_sc_hd__buf_2
*CAP
1 otrip_decoded[3] 0.000447383
2 *433:X 0.000447383
3 otrip_decoded[3] otrip_decoded[5] 0
4 otrip_decoded[3] *436:A 0.000142856
5 otrip_decoded[0] otrip_decoded[3] 0
*RES
1 *433:X otrip_decoded[3] 22.05 
*END

*D_NET *17 0.00157595
*CONN
*P otrip_decoded[4] O
*I *434:X O *D sky130_fd_sc_hd__buf_2
*CAP
1 otrip_decoded[4] 0.000713228
2 *434:X 0.000713228
3 otrip_decoded[4] *330:A 2.6304e-05
4 otrip_decoded[4] *432:A 8.39e-05
5 otrip_decoded[4] *434:A 3.92854e-05
6 otrip_decoded[4] *437:A 0
7 otrip_decoded[4] *136:12 0
8 otrip_decoded[1] otrip_decoded[4] 0
9 otrip_decoded[2] otrip_decoded[4] 0
*RES
1 *434:X otrip_decoded[4] 27.2821 
*END

*D_NET *18 0.00103762
*CONN
*P otrip_decoded[5] O
*I *435:X O *D sky130_fd_sc_hd__buf_2
*CAP
1 otrip_decoded[5] 0.000447383
2 *435:X 0.000447383
3 otrip_decoded[5] otrip_decoded[6] 0
4 otrip_decoded[5] *436:A 0.000142856
5 otrip_decoded[3] otrip_decoded[5] 0
*RES
1 *435:X otrip_decoded[5] 22.05 
*END

*D_NET *19 0.00098325
*CONN
*P otrip_decoded[6] O
*I *436:X O *D sky130_fd_sc_hd__buf_2
*CAP
1 otrip_decoded[6] 0.00046401
2 *436:X 0.00046401
3 otrip_decoded[6] *436:A 5.52302e-05
4 otrip_decoded[5] otrip_decoded[6] 0
5 *425:A otrip_decoded[6] 0
*RES
1 *436:X otrip_decoded[6] 22.05 
*END

*D_NET *20 0.00113158
*CONN
*P otrip_decoded[7] O
*I *437:X O *D sky130_fd_sc_hd__buf_2
*CAP
1 otrip_decoded[7] 0.00047246
2 *437:X 0.00047246
3 otrip_decoded[7] *136:35 0.000186662
4 otrip_decoded[0] otrip_decoded[7] 0
5 otrip_decoded[2] otrip_decoded[7] 0
*RES
1 *437:X otrip_decoded[7] 22.4607 
*END

*D_NET *21 0.00186757
*CONN
*P por_timed_out O
*I *438:X O *D sky130_fd_sc_hd__buf_2
*CAP
1 por_timed_out 0.000730349
2 *438:X 0.000730349
3 por_timed_out *391:D 0
4 por_timed_out *112:66 3.0002e-05
5 por_timed_out *113:47 1.83776e-05
6 osc_ena por_timed_out 0.000272754
7 *422:A por_timed_out 8.57347e-05
*RES
1 *438:X por_timed_out 20.547 
*END

*D_NET *22 0.000960375
*CONN
*P por_unbuf O
*I *439:X O *D sky130_fd_sc_hd__buf_2
*CAP
1 por_unbuf 0.000465142
2 *439:X 0.000465142
3 por_unbuf *363:B1 2.15245e-05
4 por_unbuf *368:A2 6.05161e-06
5 por_unbuf *407:A 2.51343e-06
*RES
1 *439:X por_unbuf 22.2464 
*END

*D_NET *23 0.00130899
*CONN
*P pwup_filt I
*I *428:A I *D sky130_fd_sc_hd__buf_1
*CAP
1 pwup_filt 0.000470362
2 *428:A 0.000470362
3 *428:A *316:A 0.000144773
4 *428:A *334:A2 0.00010096
5 *428:A *378:CLK 0
6 force_pdnb *428:A 5.65933e-05
7 *421:A *428:A 6.59446e-05
*RES
1 pwup_filt *428:A 24.7995 
*END

*D_NET *24 0.000987543
*CONN
*P startup_timed_out O
*I *440:X O *D sky130_fd_sc_hd__buf_2
*CAP
1 startup_timed_out 0.000446965
2 *440:X 0.000446965
3 startup_timed_out *392:D 0
4 *422:A startup_timed_out 9.36138e-05
*RES
1 *440:X startup_timed_out 22.7102 
*END

*D_NET *25 0.000894187
*CONN
*I *378:D I *D sky130_fd_sc_hd__dfrtp_1
*I *337:X O *D sky130_fd_sc_hd__or3b_1
*CAP
1 *378:D 0.000371487
2 *337:X 0.000371487
3 *378:D *337:B 0
4 *378:D *380:CLK 8.3722e-05
5 *378:D *413:A 6.74911e-05
*RES
1 *337:X *378:D 33.6 
*END

*D_NET *26 0.00116305
*CONN
*I *420:A I *D sky130_fd_sc_hd__dlygate4sd3_1
*I *339:Y O *D sky130_fd_sc_hd__a211oi_1
*CAP
1 *420:A 8.87823e-05
2 *339:Y 8.87823e-05
3 *420:A *339:A2 0.000317782
4 *420:A *406:A 8.0171e-05
5 *420:A *62:24 0.000587531
*RES
1 *339:Y *420:A 23.6536 
*END

*D_NET *27 0.000972747
*CONN
*I *380:D I *D sky130_fd_sc_hd__dfrtp_1
*I *342:Y O *D sky130_fd_sc_hd__o21bai_1
*CAP
1 *380:D 0.000302968
2 *342:Y 0.000302968
3 *380:D *337:A 4.44754e-05
4 *380:D *337:C_N 1.92789e-05
5 *380:D *342:A2 1.33343e-05
6 *380:D *406:A 0.000129868
7 *380:D *91:23 0.000128154
8 *380:D *115:26 3.16993e-05
*RES
1 *342:Y *380:D 32.6536 
*END

*D_NET *28 0.000504913
*CONN
*I *381:D I *D sky130_fd_sc_hd__dfrtp_1
*I *344:X O *D sky130_fd_sc_hd__o311a_1
*CAP
1 *381:D 0.000154104
2 *344:X 0.000154104
3 *381:D *344:A1 5.33433e-05
4 *381:D *64:20 0.000100831
5 *381:D *115:16 4.25305e-05
*RES
1 *344:X *381:D 30.2964 
*END

*D_NET *29 0.000544248
*CONN
*I *382:D I *D sky130_fd_sc_hd__dfrtp_1
*I *347:Y O *D sky130_fd_sc_hd__nor2_1
*CAP
1 *382:D 0.000173196
2 *347:Y 0.000173196
3 *382:D *346:B 7.83587e-05
4 *382:D *347:B 5.30637e-06
5 *382:D *381:CLK 2.89016e-05
6 *382:D *382:CLK 8.64516e-06
7 *382:D *77:10 7.6644e-05
*RES
1 *347:Y *382:D 30.1714 
*END

*D_NET *30 0.00121326
*CONN
*I *383:D I *D sky130_fd_sc_hd__dfrtp_1
*I *348:X O *D sky130_fd_sc_hd__xor2_1
*CAP
1 *383:D 0.000606632
2 *348:X 0.000606632
3 *383:D *402:A 0
4 *383:D *112:10 0
*RES
1 *348:X *383:D 38.0464 
*END

*D_NET *31 0.000331809
*CONN
*I *384:D I *D sky130_fd_sc_hd__dfrtp_1
*I *350:X O *D sky130_fd_sc_hd__mux2_1
*CAP
1 *384:D 8.92287e-05
2 *350:X 8.92287e-05
3 *384:D *388:RESET_B 9.11365e-06
4 *384:D *61:37 5.71472e-05
5 *384:D *68:48 3.25078e-05
6 *384:D *68:56 4.46186e-06
7 *384:D *77:55 5.01213e-05
*RES
1 *350:X *384:D 29.475 
*END

*D_NET *32 0.000803091
*CONN
*I *385:D I *D sky130_fd_sc_hd__dfrtp_1
*I *353:X O *D sky130_fd_sc_hd__o2bb2a_1
*CAP
1 *385:D 0.000311667
2 *353:X 0.000311667
3 *385:D *353:A1_N 5.39818e-05
4 *385:D *353:B1 0.000103033
5 *385:D *80:12 2.27416e-05
*RES
1 *353:X *385:D 23.7964 
*END

*D_NET *33 0.00100076
*CONN
*I *386:D I *D sky130_fd_sc_hd__dfrtp_1
*I *356:X O *D sky130_fd_sc_hd__a32o_1
*CAP
1 *386:D 0.00034394
2 *356:X 0.00034394
3 *386:D *356:A2 3.01126e-05
4 *386:D *386:RESET_B 0.00017379
5 *386:D *78:10 8.00806e-05
6 *386:D *81:8 0
7 *386:D *113:101 2.89016e-05
*RES
1 *356:X *386:D 35.0821 
*END

*D_NET *34 0.000453172
*CONN
*I *387:D I *D sky130_fd_sc_hd__dfrtp_1
*I *360:X O *D sky130_fd_sc_hd__o21ba_1
*CAP
1 *387:D 0.000115669
2 *360:X 0.000115669
3 *387:D *351:B1 0
4 *387:D *388:RESET_B 1.76135e-05
5 *387:D *400:A 0.00010096
6 *387:D *112:129 0.00010326
*RES
1 *360:X *387:D 29.8857 
*END

*D_NET *35 0.00082637
*CONN
*I *388:D I *D sky130_fd_sc_hd__dfrtp_1
*I *362:X O *D sky130_fd_sc_hd__o32a_1
*CAP
1 *388:D 0.000156467
2 *362:X 0.000156467
3 *388:D *324:B 5.33005e-05
4 *388:D *62:24 0
5 *388:D *86:14 0.000152333
6 *388:D *86:27 0.000154762
7 *398:A *388:D 0.00015304
*RES
1 *362:X *388:D 31.9036 
*END

*D_NET *36 0.000592634
*CONN
*I *389:D I *D sky130_fd_sc_hd__dfrtp_1
*I *366:X O *D sky130_fd_sc_hd__o2bb2a_1
*CAP
1 *389:D 0.000137542
2 *366:X 0.000137542
3 *389:D *368:B1 0.000125593
4 *389:D *368:B2 0.000128154
5 *389:D *389:RESET_B 6.38037e-05
*RES
1 *366:X *389:D 31.0107 
*END

*D_NET *37 0.00260436
*CONN
*I *390:D I *D sky130_fd_sc_hd__dfrtp_1
*I *368:X O *D sky130_fd_sc_hd__a22o_1
*CAP
1 *390:D 0.000842251
2 *368:X 0.000842251
3 *390:D *368:A1 0.000508791
4 *390:D *368:A2 3.51446e-05
5 *390:D *389:CLK 0.000339211
6 *390:D *389:RESET_B 0
7 *390:D *390:CLK 3.67142e-05
8 *390:D *113:72 0
*RES
1 *368:X *390:D 42.4393 
*END

*D_NET *38 0.00140512
*CONN
*I *391:D I *D sky130_fd_sc_hd__dfrtp_1
*I *372:X O *D sky130_fd_sc_hd__o21ba_1
*CAP
1 *391:D 0.000366546
2 *372:X 0.000366546
3 *391:D *391:CLK 3.99614e-06
4 *391:D *413:A 3.67142e-05
5 *391:D *76:10 6.07232e-05
6 *391:D *76:12 9.7931e-05
7 *391:D *76:14 5.80706e-06
8 *391:D *112:81 0.000170661
9 *391:D *112:94 8.00806e-05
10 *391:D *113:47 0.00021612
11 por_timed_out *391:D 0
*RES
1 *372:X *391:D 36.0821 
*END

*D_NET *39 0.000676154
*CONN
*I *392:D I *D sky130_fd_sc_hd__dfrtp_1
*I *373:X O *D sky130_fd_sc_hd__xor2_1
*CAP
1 *392:D 0.000185405
2 *373:X 0.000185405
3 *392:D *334:B1 0.00027438
4 *392:D *373:A 0
5 *392:D *392:CLK 1.08881e-05
6 *392:D *87:10 0
7 *392:D *87:21 0
8 startup_timed_out *392:D 0
9 *422:A *392:D 2.00751e-05
*RES
1 *373:X *392:D 32.158 
*END

*D_NET *40 0.000212251
*CONN
*I *393:D I *D sky130_fd_sc_hd__dfrtp_1
*I *376:X O *D sky130_fd_sc_hd__and2b_1
*CAP
1 *393:D 4.79393e-05
2 *376:X 4.79393e-05
3 *393:D *393:CLK 1.06225e-05
4 *393:D *394:RESET_B 2.56694e-05
5 *393:D *76:110 8.00806e-05
*RES
1 *376:X *393:D 28.8143 
*END

*D_NET *41 0.000526175
*CONN
*I *394:D I *D sky130_fd_sc_hd__dfrtp_1
*I *377:X O *D sky130_fd_sc_hd__xor2_1
*CAP
1 *394:D 0.000222722
2 *377:X 0.000222722
3 *394:D *394:CLK 8.07313e-05
4 *394:D *51:10 0
*RES
1 *377:X *394:D 31.6179 
*END

*D_NET *42 0.00263542
*CONN
*I *360:B1_N I *D sky130_fd_sc_hd__o21ba_1
*I *362:B1 I *D sky130_fd_sc_hd__o32a_1
*I *359:X O *D sky130_fd_sc_hd__o211a_1
*CAP
1 *360:B1_N 0.000273064
2 *362:B1 0.000162459
3 *359:X 4.56241e-05
4 *42:8 0.000481147
5 *360:B1_N *360:A1 0
6 *360:B1_N *388:RESET_B 0.00022132
7 *360:B1_N *400:A 7.96335e-05
8 *360:B1_N *405:A 0.00014285
9 *360:B1_N *111:70 2.26973e-05
10 *360:B1_N *112:28 0.000309266
11 *362:B1 *338:A1 7.91281e-05
12 *362:B1 *359:B1 0.000202602
13 *362:B1 *362:A2 0.00010637
14 *362:B1 *362:A3 2.14658e-05
15 *362:B1 *362:B2 5.52302e-05
16 *362:B1 *111:70 0.000188977
17 *42:8 *359:B1 0.000165494
18 *42:8 *111:70 7.80929e-05
*RES
1 *359:X *42:8 15.8982 
2 *42:8 *362:B1 19.5768 
3 *42:8 *360:B1_N 20.9339 
*END

*D_NET *43 0.00143258
*CONN
*I *362:A3 I *D sky130_fd_sc_hd__o32a_1
*I *361:Y O *D sky130_fd_sc_hd__nand2_1
*CAP
1 *362:A3 0.000181106
2 *361:Y 0.000181106
3 *362:A3 *324:B 0.000597999
4 *362:A3 *359:A2 0.000219711
5 *362:A3 *359:B1 3.50166e-05
6 *362:A3 *362:A2 3.02149e-05
7 *362:A3 *362:B2 0.000136958
8 *362:A3 *83:29 2.90075e-05
9 *362:B1 *362:A3 2.14658e-05
*RES
1 *361:Y *362:A3 24.9036 
*END

*D_NET *44 0.00106424
*CONN
*I *365:A I *D sky130_fd_sc_hd__or2_1
*I *363:Y O *D sky130_fd_sc_hd__a21oi_1
*CAP
1 *365:A 0.000175645
2 *363:Y 0.000175645
3 *365:A *363:A2 0.000385717
4 *365:A *366:B1 5.52302e-05
5 *365:A *368:A2 8.66324e-05
6 *365:A *61:57 0.000128224
7 *365:A *68:18 5.71472e-05
*RES
1 *363:Y *365:A 33.725 
*END

*D_NET *45 0.00360367
*CONN
*I *369:D I *D sky130_fd_sc_hd__and4_1
*I *367:B I *D sky130_fd_sc_hd__xor2_1
*I *365:B I *D sky130_fd_sc_hd__or2_1
*I *364:X O *D sky130_fd_sc_hd__and2_1
*CAP
1 *369:D 0.000132381
2 *367:B 0
3 *365:B 0.000145614
4 *364:X 0
5 *45:33 0.000771561
6 *45:6 0.000784793
7 *365:B *323:A 0.00014576
8 *365:B *61:29 9.80394e-05
9 *365:B *61:57 0.000100831
10 *365:B *77:55 0
11 *369:D *369:A 5.30209e-05
12 *369:D *369:B 5.52238e-05
13 *369:D *369:C 2.44318e-05
14 *369:D *372:A2 2.51343e-06
15 *369:D *377:A 0.000276211
16 *45:33 *320:C_N 4.8954e-05
17 *45:33 *338:A2 6.44628e-05
18 *45:33 *338:B1_N 5.48674e-05
19 *45:33 *368:B2 0.000143026
20 *45:33 *369:A 5.52238e-05
21 *45:33 *369:C 0
22 *45:33 *370:A4 0.000199806
23 *45:33 *61:29 1.61784e-05
24 *45:33 *62:24 0.000197519
25 *45:33 *74:42 0.000220583
26 *45:33 *77:55 1.26701e-05
*RES
1 *364:X *45:6 13.8 
2 *45:6 *365:B 16.8893 
3 *45:6 *45:33 19.0692 
4 *45:33 *367:B 9.3 
5 *45:33 *369:D 13.4429 
*END

*D_NET *46 0.000546654
*CONN
*I *366:A2_N I *D sky130_fd_sc_hd__o2bb2a_1
*I *365:X O *D sky130_fd_sc_hd__or2_1
*CAP
1 *366:A2_N 0.000199292
2 *365:X 0.000199292
3 *366:A2_N *68:18 0.000148071
*RES
1 *365:X *366:A2_N 21.1893 
*END

*D_NET *47 0.00141597
*CONN
*I *368:B2 I *D sky130_fd_sc_hd__a22o_1
*I *367:X O *D sky130_fd_sc_hd__xor2_1
*CAP
1 *368:B2 0.000342041
2 *367:X 0.000342041
3 *368:B2 *320:C_N 8.54881e-05
4 *368:B2 *363:A2 0
5 *368:B2 *368:A1 0
6 *368:B2 *368:B1 0.000190383
7 *368:B2 *85:16 0
8 *389:D *368:B2 0.000128154
9 *398:A *368:B2 0.000184838
10 *45:33 *368:B2 0.000143026
*RES
1 *367:X *368:B2 36.3679 
*END

*D_NET *48 0.00160052
*CONN
*I *372:A2 I *D sky130_fd_sc_hd__o21ba_1
*I *369:X O *D sky130_fd_sc_hd__and4_1
*CAP
1 *372:A2 0.000288358
2 *369:X 0.000288358
3 *372:A2 *369:C 0.000103983
4 *372:A2 *374:C 0.000140021
5 *372:A2 *374:D 9.90367e-05
6 *372:A2 *377:A 7.52646e-06
7 *372:A2 *394:RESET_B 0.000173804
8 *372:A2 *50:24 9.71197e-05
9 *372:A2 *111:8 3.48235e-05
10 *372:A2 *113:47 0.000364974
11 *369:D *372:A2 2.51343e-06
*RES
1 *369:X *372:A2 36.2964 
*END

*D_NET *49 0.0047338
*CONN
*I *375:A4 I *D sky130_fd_sc_hd__a41o_1
*I *371:C I *D sky130_fd_sc_hd__and3_1
*I *374:D I *D sky130_fd_sc_hd__and4_1
*I *370:X O *D sky130_fd_sc_hd__a41o_1
*CAP
1 *375:A4 6.57313e-05
2 *371:C 0.000538173
3 *374:D 0.000312834
4 *370:X 6.11942e-05
5 *49:10 0.00102161
6 *49:8 0.000297533
7 *371:C *379:CLK 7.43578e-06
8 *371:C *379:D 0.000182633
9 *371:C *438:A 0.000270236
10 *371:C *86:14 6.86338e-05
11 *371:C *111:38 0.000302725
12 *371:C *112:34 0.000110521
13 *371:C *113:33 3.85148e-05
14 *371:C *113:37 3.00962e-05
15 *374:D *372:A1 2.286e-05
16 *374:D *372:B1_N 5.7661e-06
17 *374:D *373:B 0.000210203
18 *374:D *374:C 0.000379084
19 *374:D *438:A 9.25014e-06
20 *374:D *50:24 4.8566e-05
21 *375:A4 *324:C_N 0.000122091
22 *375:A4 *324:D_N 3.57366e-05
23 *375:A4 *369:B 9.80173e-05
24 *375:A4 *111:34 7.03295e-05
25 *49:8 *369:B 2.97074e-05
26 *49:8 *401:A 0
27 *49:8 *111:34 3.34295e-05
28 *49:10 *369:B 2.8266e-06
29 *49:10 *374:C 0
30 *49:10 *111:34 0.000236821
31 *49:10 *111:38 2.22043e-05
32 *372:A2 *374:D 9.90367e-05
*RES
1 *370:X *49:8 15.1393 
2 *49:8 *49:10 3.3125 
3 *49:10 *374:D 22.0411 
4 *49:10 *371:C 34.6125 
5 *49:8 *375:A4 16.4071 
*END

*D_NET *50 0.0033913
*CONN
*I *372:B1_N I *D sky130_fd_sc_hd__o21ba_1
*I *373:B I *D sky130_fd_sc_hd__xor2_1
*I *371:X O *D sky130_fd_sc_hd__and3_1
*CAP
1 *372:B1_N 2.03441e-05
2 *373:B 0.000258597
3 *371:X 0.000838397
4 *50:24 0.00111734
5 *372:B1_N *372:A1 0
6 *50:24 *325:A 5.52302e-05
7 *50:24 *372:A1 8.81407e-05
8 *50:24 *379:D 4.89264e-05
9 *50:24 *388:CLK 3.69047e-06
10 *50:24 *399:A 0.00011718
11 *50:24 *86:14 0.000369711
12 *50:24 *111:38 0
13 *50:24 *111:51 5.68713e-05
14 *50:24 *112:34 5.52238e-05
15 *372:A2 *50:24 9.71197e-05
16 *374:D *372:B1_N 5.7661e-06
17 *374:D *373:B 0.000210203
18 *374:D *50:24 4.8566e-05
*RES
1 *371:X *50:24 43.7464 
2 *50:24 *373:B 13.9429 
3 *50:24 *372:B1_N 9.72857 
*END

*D_NET *51 0.00102409
*CONN
*I *376:A_N I *D sky130_fd_sc_hd__and2b_1
*I *377:B I *D sky130_fd_sc_hd__xor2_1
*I *374:X O *D sky130_fd_sc_hd__and4_1
*CAP
1 *376:A_N 2.00869e-05
2 *377:B 2.52229e-05
3 *374:X 0.000336197
4 *51:10 0.000381506
5 *376:A_N *377:A 5.52302e-05
6 *377:B *377:A 5.52238e-05
7 *51:10 *376:B 0
8 *51:10 *76:99 0
9 *51:10 *76:110 0
10 *51:10 *87:21 0.000150625
11 *51:10 *88:14 0
12 *394:D *51:10 0
*RES
1 *374:X *51:10 24.8 
2 *51:10 *377:B 9.83571 
3 *51:10 *376:A_N 9.83571 
*END

*D_NET *52 0.000582771
*CONN
*I *376:B I *D sky130_fd_sc_hd__and2b_1
*I *375:X O *D sky130_fd_sc_hd__a41o_1
*CAP
1 *376:B 0.00014296
2 *375:X 0.00014296
3 *376:B *76:99 0.00015234
4 *376:B *76:110 0.000144512
5 *51:10 *376:B 0
*RES
1 *375:X *376:B 31.3679 
*END

*D_NET *53 0.000777778
*CONN
*I *334:A2 I *D sky130_fd_sc_hd__a31o_1
*I *316:Y O *D sky130_fd_sc_hd__inv_2
*CAP
1 *334:A2 0.000287381
2 *316:Y 0.000287381
3 *334:A2 *334:A1 0
4 *334:A2 *397:D 0.000102056
5 *334:A2 *137:15 0
6 *421:A *334:A2 0
7 *428:A *334:A2 0.00010096
*RES
1 *316:Y *334:A2 32.6179 
*END

*D_NET *54 0.000681223
*CONN
*I *318:B I *D sky130_fd_sc_hd__and3b_1
*I *317:X O *D sky130_fd_sc_hd__and4bb_1
*CAP
1 *318:B 0.000192916
2 *317:X 0.000192916
3 *318:B *345:A1 9.25014e-06
4 *318:B *351:B1 5.41794e-05
5 *318:B *357:C 0.000131551
6 *318:B *359:A1 1.19402e-05
7 *318:B *92:35 1.69115e-05
8 *318:B *115:10 7.15591e-05
*RES
1 *317:X *318:B 31.1 
*END

*D_NET *55 0.00204155
*CONN
*I *344:C1 I *D sky130_fd_sc_hd__o311a_1
*I *319:Y O *D sky130_fd_sc_hd__inv_2
*CAP
1 *344:C1 0.000511846
2 *319:Y 0.000511846
3 *344:C1 *344:B1 5.7661e-06
4 *344:C1 *346:B 7.37806e-05
5 *344:C1 *348:B 2.15363e-05
6 *344:C1 *96:8 1.92789e-05
7 *344:C1 *114:36 4.46186e-06
8 *344:C1 *114:50 4.56594e-05
9 *344:C1 *114:63 0.000281944
10 *344:C1 *130:16 0.000565434
*RES
1 *319:Y *344:C1 39.2429 
*END

*D_NET *56 0.000644813
*CONN
*I *324:A I *D sky130_fd_sc_hd__or4bb_1
*I *320:X O *D sky130_fd_sc_hd__or3b_1
*CAP
1 *324:A 0.000133604
2 *320:X 0.000133604
3 *324:A *324:D_N 0.000135109
4 *324:A *370:A1 5.49544e-05
5 *324:A *401:A 0.000114202
6 *324:A *59:26 1.00332e-05
7 *324:A *60:12 6.05161e-06
8 *324:A *86:27 5.72546e-05
*RES
1 *320:X *324:A 30.725 
*END

*D_NET *57 0.00350442
*CONN
*I *324:B I *D sky130_fd_sc_hd__or4bb_1
*I *321:X O *D sky130_fd_sc_hd__or4b_1
*CAP
1 *324:B 0.00104273
2 *321:X 0.00104273
3 *324:B *324:C_N 0
4 *324:B *351:A1 4.87953e-05
5 *324:B *359:A2 2.28598e-05
6 *324:B *359:B1 0.000134656
7 *324:B *362:A2 6.8445e-06
8 *324:B *388:RESET_B 0.000105582
9 *324:B *401:A 0.000207338
10 *324:B *74:16 1.95646e-05
11 *324:B *80:12 2.40379e-05
12 *324:B *112:129 0.000197977
13 *362:A3 *324:B 0.000597999
14 *388:D *324:B 5.33005e-05
*RES
1 *321:X *324:B 45.225 
*END

*D_NET *58 0.00194316
*CONN
*I *324:C_N I *D sky130_fd_sc_hd__or4bb_1
*I *374:B I *D sky130_fd_sc_hd__and4_1
*I *322:X O *D sky130_fd_sc_hd__and2_1
*CAP
1 *324:C_N 0.000308053
2 *374:B 6.59288e-05
3 *322:X 0.000198604
4 *58:6 0.000572586
5 *324:C_N *369:B 3.6392e-05
6 *324:C_N *375:A1 2.28598e-05
7 *324:C_N *375:B1 9.41642e-05
8 *324:C_N *112:94 1.74352e-05
9 *374:B *76:99 0.000175519
10 *374:B *87:21 6.26559e-05
11 *58:6 *322:B 0.000114645
12 *58:6 *375:A1 3.98559e-05
13 *58:6 *375:B1 5.52238e-05
14 *58:6 *412:A 5.71472e-05
15 *324:B *324:C_N 0
16 *375:A4 *324:C_N 0.000122091
*RES
1 *322:X *58:6 13.1214 
2 *58:6 *374:B 20.55 
3 *58:6 *324:C_N 14.7821 
*END

*D_NET *59 0.00355672
*CONN
*I *364:A I *D sky130_fd_sc_hd__and2_1
*I *370:A3 I *D sky130_fd_sc_hd__a41o_1
*I *324:D_N I *D sky130_fd_sc_hd__or4bb_1
*I *323:X O *D sky130_fd_sc_hd__and2_1
*CAP
1 *364:A 0
2 *370:A3 0
3 *324:D_N 0.000199697
4 *323:X 0.000187337
5 *59:26 0.000514628
6 *59:16 0.000502269
7 *324:D_N *370:A2 1.00332e-05
8 *324:D_N *401:A 5.34055e-05
9 *324:D_N *60:12 1.17091e-05
10 *324:D_N *111:34 1.24368e-05
11 *59:16 *320:C_N 2.16833e-05
12 *59:16 *338:A2 2.06112e-05
13 *59:16 *370:A4 0.000202134
14 *59:16 *68:10 2.06112e-05
15 *59:16 *74:42 7.4607e-05
16 *59:16 *74:63 1.1594e-05
17 *59:26 *320:B 0.000179936
18 *59:26 *338:A1 0.000220937
19 *59:26 *338:B1_N 2.89791e-06
20 *59:26 *349:B 5.33005e-05
21 *59:26 *370:A2 9.27101e-05
22 *59:26 *370:A4 4.38088e-05
23 *59:26 *370:B1 9.41642e-05
24 *59:26 *68:10 0.000165229
25 *59:26 *74:63 4.19535e-05
26 *59:26 *83:29 0.0001042
27 *59:26 *115:75 0.000220333
28 *59:26 *115:77 0.000307733
29 *59:26 *115:90 5.87711e-06
30 *324:A *324:D_N 0.000135109
31 *324:A *59:26 1.00332e-05
32 *375:A4 *324:D_N 3.57366e-05
*RES
1 *323:X *59:16 21.5809 
2 *59:16 *59:26 18.4643 
3 *59:26 *324:D_N 17.8714 
4 *59:26 *370:A3 13.8 
5 *59:16 *364:A 13.8 
*END

*D_NET *60 0.00395819
*CONN
*I *359:B1 I *D sky130_fd_sc_hd__o211a_1
*I *401:A I *D sky130_fd_sc_hd__buf_2
*I *324:X O *D sky130_fd_sc_hd__or4bb_1
*CAP
1 *359:B1 0.000524544
2 *401:A 0.000347983
3 *324:X 0.000123559
4 *60:12 0.000996086
5 *359:B1 *338:A1 0.00041717
6 *359:B1 *359:A1 9.78022e-05
7 *359:B1 *362:A1 6.74893e-05