* NGSPICE file created from sky130_ajc_ip__por_rcx.ext - technology: sky130A

.subckt sky130_ajc_ip__por_rcx otrip[1] otrip[0] force_ena_rc_osc porb_h porb por
+ force_pdn ibg_200n dcomp startup_timed_out force_dis_rc_osc vbg_1v2 otrip[2] force_short_oneshot
+ itest vin osc_ck por_timed_out isrc_sel avdd avss pwup_filt dvdd dvss
X0 avdd.t207 por_ana_0.comparator_0.vpp.t14 por_ana_0.comparator_0.vpp.t15 avdd.t195 sky130_fd_pr__pfet_g5v0d10v5 ad=0.145 pd=1.29 as=0.145 ps=1.29 w=1 l=8
X1 por_ana_0.ibias_gen_0.vn0.t1 por_ana_0.ibias_gen_0.vp0.t12 avdd.t555 avdd.t554 sky130_fd_pr__pfet_g5v0d10v5 ad=0.725 pd=5.29 as=0.725 ps=5.29 w=5 l=4
X2 dvdd.t101 a_39510_31251# por_dig_0._044_ dvdd.t100 sky130_fd_pr__pfet_01v8_hvt ad=0.26 pd=2.52 as=0.26 ps=2.52 w=1 l=0.15
X3 por_ana_0.comparator_1.n1.t1 por_ana_0.comparator_1.n0.t5 avdd.t545 avdd.t544 sky130_fd_pr__pfet_g5v0d10v5 ad=0.145 pd=1.29 as=0.29 ps=2.58 w=1 l=0.6
X4 a_34662_34363# por_dig_0.cnt_por\[6\] a_34580_34110# dvss.t462 sky130_fd_pr__nfet_01v8 ad=0.0441 pd=0.63 as=0.1092 ps=1.36 w=0.42 l=0.15
X5 a_38518_21903# a_38150_22885# dvss.t116 dvss.t115 sky130_fd_pr__nfet_01v8 ad=0.2478 pd=2.27 as=0.1176 ps=1.12 w=0.84 l=0.15
X6 a_32980_33287# a_32464_32915# a_32885_33275# dvss.t472 sky130_fd_pr__special_nfet_01v8 ad=0.0594 pd=0.69 as=0.066 ps=0.745 w=0.36 l=0.15
X7 dvss.t540 a_25863_32638# a_26288_32594# dvss.t539 sky130_fd_pr__nfet_g5v0d10v5 ad=0.21 pd=1.78 as=0.21 ps=1.78 w=1.5 l=0.5
X8 a_29802_22973# a_29702_22885# dvss.t491 dvss.t490 sky130_fd_pr__nfet_g5v0d10v5 ad=0.21 pd=1.78 as=0.3975 ps=3.53 w=1.5 l=0.5
X9 porb.t31 por_ana_0.sky130_fd_sc_hd__inv_4_1.Y dvdd.t303 dvdd.t302 sky130_fd_pr__pfet_01v8_hvt ad=0.135 pd=1.27 as=0.135 ps=1.27 w=1 l=0.15
X10 vbg_1v2.t1 dvss.t1679 dvss.t1681 dvss.t1680 sky130_fd_pr__nfet_g5v0d10v5 ad=0.145 pd=1.29 as=0.29 ps=2.58 w=1 l=0.5
X11 dvss.t618 por_dig_0._009_ a_36331_33819# dvss.t617 sky130_fd_pr__nfet_01v8 ad=0.2205 pd=1.89 as=0.066 ps=0.745 w=0.42 l=0.15
X12 dvdd.t501 a_35583_34541# por_dig_0.clknet_1_1__leaf_osc_ck.t31 dvdd.t500 sky130_fd_pr__pfet_01v8_hvt ad=0.14 pd=1.28 as=0.14 ps=1.28 w=1 l=0.15
X13 dvdd.t1524 dvss.t2234 dvdd.t1523 dvdd.t1522 sky130_fd_pr__pfet_01v8_hvt ad=0.2262 pd=2.26 as=0 ps=0 w=0.87 l=0.59
X14 dvdd.t499 a_35583_34541# por_dig_0.clknet_1_1__leaf_osc_ck.t30 dvdd.t498 sky130_fd_pr__pfet_01v8_hvt ad=0.265 pd=2.53 as=0.14 ps=1.28 w=1 l=0.15
X15 a_34486_33703# por_dig_0.net22.t4 dvdd.t1238 dvdd.t1237 sky130_fd_pr__pfet_01v8_hvt ad=0.16 pd=1.32 as=0.1725 ps=1.345 w=1 l=0.15
X16 dvdd.t369 por_dig_0.net24 a_35913_33819# dvdd.t368 sky130_fd_pr__pfet_01v8_hvt ad=0.07035 pd=0.755 as=0.1092 ps=1.36 w=0.42 l=0.15
X17 por_ana_0.rstring_mux_0.vtrip_decoded_b_avdd[3] por_ana_0.rstring_mux_0.vtrip_decoded_avdd[3] avss.t9 avss.t8 sky130_fd_pr__nfet_g5v0d10v5 ad=0.21375 pd=2.07 as=0.21375 ps=2.07 w=0.75 l=0.5
X18 a_35468_30163# a_35293_30189# a_35647_30189# dvss.t383 sky130_fd_pr__nfet_01v8 ad=0.1092 pd=1.36 as=0.06405 ps=0.725 w=0.42 l=0.15
X19 a_32610_35603# por_dig_0._047_ dvss.t845 dvss.t844 sky130_fd_pr__nfet_01v8 ad=0.089375 pd=0.925 as=0.25675 ps=1.44 w=0.65 l=0.15
X20 por.t15 por_ana_0.sky130_fd_sc_hd__inv_4_4.Y dvss.t1167 dvss.t1166 sky130_fd_pr__nfet_01v8 ad=0.08775 pd=0.92 as=0.08775 ps=0.92 w=0.65 l=0.15
X21 dvdd.t978 por_ana_0.sky130_fd_sc_hd__inv_4_4.Y por.t31 dvdd.t977 sky130_fd_pr__pfet_01v8_hvt ad=0.26 pd=2.52 as=0.135 ps=1.27 w=1 l=0.15
X22 a_35552_13935# a_35930_6535# avss.t26 sky130_fd_pr__res_xhigh_po_1p41 l=35
X23 dvdd.t1527 dvss.t2235 dvdd.t1526 dvdd.t1525 sky130_fd_pr__pfet_01v8_hvt ad=0.2262 pd=2.26 as=0 ps=0 w=0.87 l=0.59
X24 dvdd.t301 por_ana_0.sky130_fd_sc_hd__inv_4_1.Y porb.t30 dvdd.t300 sky130_fd_pr__pfet_01v8_hvt ad=0.135 pd=1.27 as=0.135 ps=1.27 w=1 l=0.15
X25 a_8591_22912# a_8969_15512# avss.t27 sky130_fd_pr__res_xhigh_po_1p41 l=35
X26 dvdd.t69 a_36122_30341# por_dig_0.net29 dvdd.t68 sky130_fd_pr__pfet_01v8_hvt ad=0.14075 pd=1.325 as=0.26 ps=2.52 w=1 l=0.15
X27 a_34387_32909# osc_ck.t8 dvss.t887 dvss.t886 sky130_fd_pr__nfet_01v8 ad=0.0588 pd=0.7 as=0.1113 ps=1.37 w=0.42 l=0.15
X28 por_ana_0.ibias_gen_0.vp0.t0 avdd.t175 avdd.t177 avdd.t176 sky130_fd_pr__pfet_g5v0d10v5 ad=0.725 pd=5.29 as=0.725 ps=5.29 w=5 l=0.6
X29 dvdd.t1530 dvss.t2236 dvdd.t1529 dvdd.t1528 sky130_fd_pr__pfet_01v8_hvt ad=0.2262 pd=2.26 as=0 ps=0 w=0.87 l=1.97
X30 dvss.t1165 por_ana_0.sky130_fd_sc_hd__inv_4_4.Y por.t14 dvss.t1164 sky130_fd_pr__nfet_01v8 ad=0.08775 pd=0.92 as=0.08775 ps=0.92 w=0.65 l=0.15
X31 a_31016_13935# a_31394_6535# avss.t1 sky130_fd_pr__res_xhigh_po_1p41 l=35
X32 por_ana_0.rstring_mux_0.vtrip_decoded_avdd[3] a_33121_24371# avdd.t557 avdd.t556 sky130_fd_pr__pfet_g5v0d10v5 ad=0.3975 pd=3.53 as=0.24375 ps=1.825 w=1.5 l=0.5
X33 dvdd.t1533 dvss.t2237 dvdd.t1532 dvdd.t1531 sky130_fd_pr__pfet_01v8_hvt ad=0.2262 pd=2.26 as=0 ps=0 w=0.87 l=0.59
X34 a_34762_36173# por_dig_0.net23.t4 dvdd.t755 dvdd.t754 sky130_fd_pr__pfet_01v8_hvt ad=0.16 pd=1.32 as=0.1725 ps=1.345 w=1 l=0.15
X35 por_dig_0.net10 a_31651_30341# dvdd.t980 dvdd.t979 sky130_fd_pr__pfet_01v8_hvt ad=0.135 pd=1.27 as=0.265 ps=2.53 w=1 l=0.15
X36 avdd.t402 por_ana_0.comparator_1.vpp.t47 por_ana_0.comparator_1.n0.t0 avdd.t401 sky130_fd_pr__pfet_g5v0d10v5 ad=0.145 pd=1.29 as=0.145 ps=1.29 w=1 l=8
X37 dvss.t79 por_ana_0.sky130_fd_sc_hd__inv_4_3.Y dcomp.t15 dvss.t78 sky130_fd_pr__nfet_01v8 ad=0.08775 pd=0.92 as=0.08775 ps=0.92 w=0.65 l=0.15
X38 dvss.t616 a_33926_22885# a_34026_22973# dvss.t615 sky130_fd_pr__nfet_g5v0d10v5 ad=0.21 pd=1.78 as=0.21 ps=1.78 w=1.5 l=0.5
X39 por_ana_0.rstring_mux_0.vtrip3.t4 por_ana_0.rstring_mux_0.vtrip2.t2 avss.t149 sky130_fd_pr__res_xhigh_po_1p41 l=35
X40 dvss.t1123 a_33172_28165# por_dig_0.net12 dvss.t523 sky130_fd_pr__nfet_01v8 ad=0.08775 pd=0.92 as=0.221 ps=1.98 w=0.65 l=0.15
X41 a_35202_29877# a_35298_29619# dvss.t391 dvss.t390 sky130_fd_pr__nfet_01v8 ad=0.1092 pd=1.36 as=0.097 ps=0.975 w=0.42 l=0.5
X42 dvss.t1958 dvdd.t1810 dvss.t1957 dvss.t1956 sky130_fd_pr__nfet_01v8 ad=0.143 pd=1.62 as=0 ps=0 w=0.55 l=4.73
X43 dvss.t1955 dvdd.t1811 dvss.t1954 dvss.t1872 sky130_fd_pr__nfet_01v8 ad=0.143 pd=1.62 as=0 ps=0 w=0.55 l=0.59
X44 por_ana_0.rstring_mux_0.vtrip_decoded_b_avdd[6] por_ana_0.rstring_mux_0.vtrip_decoded_avdd[6].t2 avdd.t391 avdd.t390 sky130_fd_pr__pfet_g5v0d10v5 ad=0.4275 pd=3.57 as=0.4275 ps=3.57 w=1.5 l=0.5
X45 dvss.t1133 a_23734_23637# a_24159_23593# dvss.t1132 sky130_fd_pr__nfet_g5v0d10v5 ad=0.21 pd=1.78 as=0.21 ps=1.78 w=1.5 l=0.5
X46 por_dig_0._034_.t9 por_dig_0.cnt_por\[2\] dvdd.t1279 dvdd.t1278 sky130_fd_pr__pfet_01v8_hvt ad=0.135 pd=1.27 as=0.26 ps=2.52 w=1 l=0.15
X47 a_34482_34541# por_dig_0.cnt_por\[2\] a_34398_34541# dvss.t1581 sky130_fd_pr__nfet_01v8 ad=0.08775 pd=0.92 as=0.08775 ps=0.92 w=0.65 l=0.15
X48 avdd.t379 por_ana_0.ibias_gen_0.vp.t7 por_ana_0.ibias_gen_0.ibias0.t1 avdd.t378 sky130_fd_pr__pfet_g5v0d10v5 ad=0.725 pd=5.29 as=0.725 ps=5.29 w=5 l=4
X49 a_26288_32594# a_25863_32638# dvss.t538 dvss.t537 sky130_fd_pr__nfet_g5v0d10v5 ad=0.21 pd=1.78 as=0.3975 ps=3.53 w=1.5 l=0.5
X50 a_39417_31795# force_short_oneshot.t2 dvdd.t730 dvdd.t729 sky130_fd_pr__pfet_01v8_hvt ad=0.1664 pd=1.8 as=0.149 ps=1.325 w=0.64 l=0.15
X51 a_31651_30341# por_dig_0.net2 dvdd.t147 dvdd.t146 sky130_fd_pr__pfet_01v8_hvt ad=0.1092 pd=1.36 as=0.14575 ps=1.335 w=0.42 l=0.15
X52 a_39887_21959# a_39887_23089# avdd.t273 avdd.t272 sky130_fd_pr__pfet_g5v0d10v5 ad=0.1113 pd=1.37 as=0.1197 ps=1.41 w=0.42 l=0.5
X53 a_33334_28557# por_dig_0.net7.t2 dvdd.t732 dvdd.t731 sky130_fd_pr__pfet_01v8_hvt ad=0.135 pd=1.27 as=0.14575 ps=1.335 w=1 l=0.15
X54 dcomp.t14 por_ana_0.sky130_fd_sc_hd__inv_4_3.Y dvss.t77 dvss.t76 sky130_fd_pr__nfet_01v8 ad=0.08775 pd=0.92 as=0.08775 ps=0.92 w=0.65 l=0.15
X55 avdd.t257 a_31914_22973# a_32607_21859# avdd.t256 sky130_fd_pr__pfet_g5v0d10v5 ad=0.1113 pd=1.37 as=0.1365 ps=1.49 w=0.42 l=1
X56 por_dig_0._032_ por_dig_0._031_ dvdd.t145 dvdd.t144 sky130_fd_pr__pfet_01v8_hvt ad=0.135 pd=1.27 as=0.26 ps=2.52 w=1 l=0.15
X57 dvdd.t1536 dvss.t2238 dvdd.t1535 dvdd.t1534 sky130_fd_pr__pfet_01v8_hvt ad=0.2262 pd=2.26 as=0 ps=0 w=0.87 l=0.59
X58 dvdd.t943 por_dig_0._048_ por_dig_0._006_ dvdd.t942 sky130_fd_pr__pfet_01v8_hvt ad=0.182 pd=1.92 as=0.174 ps=1.39 w=0.7 l=0.15
X59 por_ana_0.rstring_mux_0.vtrip5.t0 por_ana_0.rstring_mux_0.vtrip6.t0 avss.t0 sky130_fd_pr__res_xhigh_po_1p41 l=35
X60 por_ana_0.schmitt_trigger_0.m.t7 por_ana_0.schmitt_trigger_0.in.t1 dvdd.t559 dvdd.t558 sky130_fd_pr__pfet_01v8 ad=0.145 pd=1.29 as=0.145 ps=1.29 w=1 l=0.5
X61 por_ana_0.comparator_1.vpp.t15 por_ana_0.comparator_1.vpp.t14 avdd.t400 avdd.t395 sky130_fd_pr__pfet_g5v0d10v5 ad=0.145 pd=1.29 as=0.145 ps=1.29 w=1 l=8
X62 dvdd.t367 por_dig_0.net24 a_35092_33427# dvdd.t366 sky130_fd_pr__pfet_01v8_hvt ad=0.0819 pd=0.81 as=0.0567 ps=0.69 w=0.42 l=0.15
X63 dvdd.t306 por_dig_0._028_ a_34746_29645# dvdd.t70 sky130_fd_pr__pfet_01v8_hvt ad=0.26 pd=2.52 as=0.135 ps=1.27 w=1 l=0.15
X64 dvdd.t384 por_dig_0.cnt_por\[3\] por_dig_0._034_.t1 dvdd.t383 sky130_fd_pr__pfet_01v8_hvt ad=0.215 pd=1.43 as=0.135 ps=1.27 w=1 l=0.15
X65 por_ana_0.comparator_0.vnn.t13 por_ana_0.comparator_0.vpp.t47 avdd.t206 avdd.t182 sky130_fd_pr__pfet_g5v0d10v5 ad=0.145 pd=1.29 as=0.145 ps=1.29 w=1 l=8
X66 dvdd.t1 por_dig_0.cnt_rsb a_34510_31277# dvdd.t0 sky130_fd_pr__pfet_01v8_hvt ad=0.0567 pd=0.69 as=0.1092 ps=1.36 w=0.42 l=0.15
X67 dvss.t1953 dvdd.t1812 dvss.t1952 dvss.t1951 sky130_fd_pr__nfet_01v8 ad=0.143 pd=1.62 as=0 ps=0 w=0.55 l=1.05
X68 por_ana_0.comparator_0.vinn.t18 avss.t134 por_ana_0.comparator_0.vinn.t18 avss.t135 sky130_fd_pr__nfet_g5v0d10v5 ad=0.725 pd=5.29 as=0 ps=0 w=5 l=0.6
X69 a_36138_22973# a_36038_22885# dvss.t282 dvss.t281 sky130_fd_pr__nfet_g5v0d10v5 ad=0.21 pd=1.78 as=0.21 ps=1.78 w=1.5 l=0.5
X70 por_dig_0._022_ por_dig_0.cnt_por\[6\] a_34212_33997# dvdd.t393 sky130_fd_pr__pfet_01v8_hvt ad=0.265 pd=2.53 as=0.14 ps=1.28 w=1 l=0.15
X71 a_37961_33453# a_37046_33453# a_37614_33695# dvss.t19 sky130_fd_pr__special_nfet_01v8 ad=0.0711 pd=0.755 as=0.0999 ps=0.985 w=0.36 l=0.15
X72 por_dig_0.cnt_por\[0\].t3 a_36756_35603# dvss.t564 dvss.t563 sky130_fd_pr__nfet_01v8 ad=0.08775 pd=0.92 as=0.08775 ps=0.92 w=0.65 l=0.15
X73 a_39881_33703# por_dig_0.cnt_st\[1\] dvdd.t511 dvdd.t510 sky130_fd_pr__pfet_01v8_hvt ad=0.0441 pd=0.63 as=0.14575 ps=1.335 w=0.42 l=0.15
X74 dvdd.t322 por_dig_0.net32 a_34594_32615# dvdd.t321 sky130_fd_pr__pfet_01v8_hvt ad=0.365 pd=1.73 as=0.105 ps=1.21 w=1 l=0.15
X75 por_dig_0._018_ por_dig_0.cnt_por\[4\] dvss.t1552 dvss.t1551 sky130_fd_pr__nfet_01v8 ad=0.091 pd=0.93 as=0.17225 ps=1.83 w=0.65 l=0.15
X76 dvdd.t749 por_dig_0._034_.t10 a_35942_31821# dvdd.t748 sky130_fd_pr__pfet_01v8_hvt ad=0.26 pd=2.52 as=0.135 ps=1.27 w=1 l=0.15
X77 dvss.t832 a_38320_34301# a_38254_34375# dvss.t831 sky130_fd_pr__nfet_01v8 ad=0.12495 pd=1.015 as=0.0669 ps=0.75 w=0.42 l=0.15
X78 a_32019_33819# a_31893_33721# a_31615_33705# dvss.t477 sky130_fd_pr__special_nfet_01v8 ad=0.0999 pd=0.985 as=0.0711 ps=0.755 w=0.36 l=0.15
X79 dvss.t75 por_ana_0.sky130_fd_sc_hd__inv_4_3.Y dcomp.t13 dvss.t74 sky130_fd_pr__nfet_01v8 ad=0.08775 pd=0.92 as=0.08775 ps=0.92 w=0.65 l=0.15
X80 avdd.t205 por_ana_0.comparator_0.vpp.t48 por_ana_0.comparator_0.vnn.t12 avdd.t180 sky130_fd_pr__pfet_g5v0d10v5 ad=0.145 pd=1.29 as=0.145 ps=1.29 w=1 l=8
X81 a_3299_22912# a_2921_15512# avss.t27 sky130_fd_pr__res_xhigh_po_1p41 l=35
X82 a_24159_23593# a_23734_23637# dvss.t1131 dvss.t1130 sky130_fd_pr__nfet_g5v0d10v5 ad=0.21 pd=1.78 as=0.3975 ps=3.53 w=1.5 l=0.5
X83 avss.t133 avss.t132 avss.t133 avss.t68 sky130_fd_pr__nfet_g5v0d10v5 ad=0.145 pd=1.29 as=0 ps=0 w=1 l=8
X84 pwup_filt.t31 por_ana_0.sky130_fd_sc_hd__inv_4_0.Y dvdd.t225 dvdd.t224 sky130_fd_pr__pfet_01v8_hvt ad=0.135 pd=1.27 as=0.135 ps=1.27 w=1 l=0.15
X85 a_31526_31827# a_31360_31827# dvss.t33 dvss.t32 sky130_fd_pr__nfet_01v8 ad=0.1092 pd=1.36 as=0.0567 ps=0.69 w=0.42 l=0.15
X86 avss.t131 avss.t129 avss.t130 avss.t81 sky130_fd_pr__nfet_g5v0d10v5 ad=1.45 pd=10.58 as=0 ps=0 w=5 l=8
X87 a_34746_31277# a_34510_31277# dvss.t464 dvss.t463 sky130_fd_pr__nfet_01v8 ad=0.1092 pd=1.36 as=0.0567 ps=0.69 w=0.42 l=0.5
X88 dvss.t226 por_ana_0.sky130_fd_sc_hd__inv_4_1.A por_ana_0.sky130_fd_sc_hd__inv_4_1.Y dvss.t225 sky130_fd_pr__nfet_01v8 ad=0.08775 pd=0.92 as=0.08775 ps=0.92 w=0.65 l=0.15
X89 avss.t144 por_ana_0.sky130_fd_sc_hvl__inv_4_0.A por_ana_0.sky130_fd_sc_hvl__inv_16_0.A.t7 avss.t143 sky130_fd_pr__nfet_g5v0d10v5 ad=0.21375 pd=2.07 as=0.105 ps=1.03 w=0.75 l=0.5
X90 a_32233_33819# a_32019_33819# dvdd.t1281 dvdd.t1280 sky130_fd_pr__pfet_01v8_hvt ad=0.1155 pd=0.97 as=0.07035 ps=0.755 w=0.42 l=0.15
X91 por_dig_0.net7.t1 a_34615_28013# dvdd.t937 dvdd.t936 sky130_fd_pr__pfet_01v8_hvt ad=0.26 pd=2.52 as=0.14075 ps=1.325 w=1 l=0.15
X92 dvss.t5 a_32701_28531# por_dig_0.otrip_decoded[1] dvss.t4 sky130_fd_pr__nfet_01v8 ad=0.097 pd=0.975 as=0.08775 ps=0.92 w=0.65 l=0.15
X93 dvdd.t413 por_dig_0.clknet_1_0__leaf_osc_ck.t32 a_36972_30189# dvdd.t412 sky130_fd_pr__pfet_01v8_hvt ad=0.0864 pd=0.91 as=0.1664 ps=1.8 w=0.64 l=0.15
X94 por_ana_0.schmitt_trigger_0.m.t8 por_ana_0.schmitt_trigger_0.out.t4 dvdd.t702 dvdd.t701 sky130_fd_pr__pfet_01v8 ad=0.145 pd=1.29 as=0.145 ps=1.29 w=1 l=0.5
X95 dvdd.t684 por_dig_0.por_unbuf.t4 por_ana_0.sky130_fd_sc_hd__inv_4_1.A dvdd.t683 sky130_fd_pr__pfet_01v8_hvt ad=0.135 pd=1.27 as=0.135 ps=1.27 w=1 l=0.15
X96 a_35640_32517# por_dig_0.net23.t5 dvdd.t757 dvdd.t756 sky130_fd_pr__pfet_01v8_hvt ad=0.06615 pd=0.735 as=0.142225 ps=1.335 w=0.42 l=0.15
X97 dvdd.t223 por_ana_0.sky130_fd_sc_hd__inv_4_0.Y pwup_filt.t30 dvdd.t222 sky130_fd_pr__pfet_01v8_hvt ad=0.135 pd=1.27 as=0.135 ps=1.27 w=1 l=0.15
X98 dvdd.t1240 por_dig_0.net22.t5 a_33600_34335# dvdd.t1239 sky130_fd_pr__pfet_01v8_hvt ad=0.16655 pd=1.39 as=0.0567 ps=0.69 w=0.42 l=0.15
X99 dvss.t1532 por_dig_0.cnt_st\[4\] a_37616_32141# dvss.t1531 sky130_fd_pr__nfet_01v8 ad=0.08775 pd=0.92 as=0.169 ps=1.82 w=0.65 l=0.15
X100 dvss.t2143 isrc_sel.t2 a_38150_24619# dvss.t2142 sky130_fd_pr__nfet_01v8 ad=0.1176 pd=1.12 as=0.2478 ps=2.27 w=0.84 l=0.15
X101 a_32088_31514# a_31893_31545# a_32398_31277# dvss.t21 sky130_fd_pr__special_nfet_01v8 ad=0.0594 pd=0.69 as=0.1401 ps=1.1 w=0.36 l=0.15
X102 por_dig_0.clknet_1_1__leaf_osc_ck.t15 a_35583_34541# dvss.t596 dvss.t595 sky130_fd_pr__nfet_01v8 ad=0.0588 pd=0.7 as=0.0588 ps=0.7 w=0.42 l=0.15
X103 a_35645_31277# por_dig_0._015_ dvss.t378 dvss.t377 sky130_fd_pr__nfet_01v8 ad=0.066 pd=0.745 as=0.2205 ps=1.89 w=0.42 l=0.15
X104 dvss.t280 a_36038_22885# a_36138_22973# dvss.t279 sky130_fd_pr__nfet_g5v0d10v5 ad=0.21 pd=1.78 as=0.21 ps=1.78 w=1.5 l=0.5
X105 por_dig_0.net4 a_39417_31795# dvdd.t456 dvdd.t455 sky130_fd_pr__pfet_01v8_hvt ad=0.135 pd=1.27 as=0.265 ps=2.53 w=1 l=0.15
X106 avdd.t174 avdd.t172 avdd.t173 avdd.t3 sky130_fd_pr__pfet_g5v0d10v5 ad=0.29 pd=2.58 as=0 ps=0 w=1 l=8
X107 por_ana_0.comparator_0.vinn.t6 avdd.t170 por_ana_0.comparator_0.vinn.t6 avdd.t171 sky130_fd_pr__pfet_g5v0d10v5 ad=0.725 pd=5.29 as=0 ps=0 w=5 l=0.6
X108 dvdd.t33 por_dig_0._033_ a_35640_32517# dvdd.t32 sky130_fd_pr__pfet_01v8_hvt ad=0.0567 pd=0.69 as=0.06615 ps=0.735 w=0.42 l=0.15
X109 dvss.t1950 dvdd.t1813 dvss.t1949 dvss.t1948 sky130_fd_pr__nfet_01v8 ad=0.143 pd=1.62 as=0 ps=0 w=0.55 l=4.73
X110 a_8591_22912# a_8213_15512# avss.t27 sky130_fd_pr__res_xhigh_po_1p41 l=35
X111 dvdd.t97 a_38053_30189# a_38228_30163# dvdd.t96 sky130_fd_pr__pfet_01v8_hvt ad=0.1134 pd=1.38 as=0.0567 ps=0.69 w=0.42 l=0.15
X112 a_32088_31514# a_31932_31419# a_32233_31643# dvdd.t15 sky130_fd_pr__pfet_01v8_hvt ad=0.07245 pd=0.765 as=0.1155 ps=0.97 w=0.42 l=0.15
X113 a_33161_36539# por_dig_0._007_ dvdd.t7 dvdd.t6 sky130_fd_pr__pfet_01v8_hvt ad=0.0651 pd=0.73 as=0.1092 ps=1.36 w=0.42 l=0.15
X114 avdd.t249 por_ana_0.rstring_mux_0.ena_b por_ana_0.rstring_mux_0.vtop.t15 avdd.t248 sky130_fd_pr__pfet_g5v0d10v5 ad=0.725 pd=5.29 as=0.725 ps=5.29 w=5 l=0.6
X115 dvss.t323 a_39162_33453# a_39268_33453# dvss.t322 sky130_fd_pr__nfet_01v8 ad=0.097 pd=0.975 as=0.1092 ps=1.36 w=0.42 l=0.5
X116 a_5567_22912# a_5189_15512# avss.t27 sky130_fd_pr__res_xhigh_po_1p41 l=35
X117 dvss.t368 a_25846_23637# a_26271_23593# dvss.t367 sky130_fd_pr__nfet_g5v0d10v5 ad=0.21 pd=1.78 as=0.21 ps=1.78 w=1.5 l=0.5
X118 dvdd.t399 a_32616_32125# a_32603_31821# dvdd.t398 sky130_fd_pr__pfet_01v8_hvt ad=0.0819 pd=0.81 as=0.0567 ps=0.69 w=0.42 l=0.15
X119 por_dig_0.clknet_1_0__leaf_osc_ck.t15 a_34098_30707# dvss.t210 dvss.t209 sky130_fd_pr__nfet_01v8 ad=0.0588 pd=0.7 as=0.0588 ps=0.7 w=0.42 l=0.15
X120 a_34098_30707# por_dig_0.clknet_0_osc_ck.t32 dvss.t2127 dvss.t2126 sky130_fd_pr__nfet_01v8 ad=0.0588 pd=0.7 as=0.0588 ps=0.7 w=0.42 l=0.15
X121 dvss.t1947 dvdd.t1814 dvss.t1946 dvss.t1860 sky130_fd_pr__nfet_01v8 ad=0.143 pd=1.62 as=0 ps=0 w=0.55 l=4.73
X122 a_35030_28557# por_dig_0.net5.t2 dvss.t2112 dvss.t2111 sky130_fd_pr__nfet_01v8 ad=0.10785 pd=1.36 as=0.1092 ps=1.36 w=0.42 l=0.15
X123 avss.t128 avss.t126 avss.t127 avss.t64 sky130_fd_pr__nfet_g5v0d10v5 ad=0.29 pd=2.58 as=0 ps=0 w=1 l=8
X124 a_34734_34363# por_dig_0.net22.t6 a_34662_34363# dvss.t1525 sky130_fd_pr__nfet_01v8 ad=0.0441 pd=0.63 as=0.0441 ps=0.63 w=0.42 l=0.15
X125 por_dig_0.cnt_por\[2\] a_33996_36477# dvss.t1571 dvss.t1570 sky130_fd_pr__nfet_01v8 ad=0.169 pd=1.82 as=0.2087 ps=2.02 w=0.65 l=0.15
X126 a_33012_33997# por_dig_0._047_ a_32794_33971# dvdd.t728 sky130_fd_pr__pfet_01v8_hvt ad=0.1375 pd=1.275 as=0.26 ps=2.52 w=1 l=0.15
X127 a_32607_23593# a_32182_23637# dvss.t15 dvss.t14 sky130_fd_pr__nfet_g5v0d10v5 ad=0.3975 pd=3.53 as=0.21 ps=1.78 w=1.5 l=0.5
X128 a_33804_31251# por_dig_0.cnt_por\[8\] dvdd.t267 dvdd.t266 sky130_fd_pr__pfet_01v8_hvt ad=0.3 pd=2.6 as=0.175 ps=1.35 w=1 l=0.15
X129 dvss.t1163 por_ana_0.sky130_fd_sc_hd__inv_4_4.Y por.t13 dvss.t1162 sky130_fd_pr__nfet_01v8 ad=0.08775 pd=0.92 as=0.08775 ps=0.92 w=0.65 l=0.15
X130 por_ana_0.sky130_fd_sc_hvl__inv_16_0.A.t6 por_ana_0.sky130_fd_sc_hvl__inv_4_0.A avss.t142 avss.t141 sky130_fd_pr__nfet_g5v0d10v5 ad=0.105 pd=1.03 as=0.105 ps=1.03 w=0.75 l=0.5
X131 a_38250_22973# a_38150_22885# dvss.t114 dvss.t113 sky130_fd_pr__nfet_g5v0d10v5 ad=0.21 pd=1.78 as=0.21 ps=1.78 w=1.5 l=0.5
X132 por_ana_0.rstring_mux_0.vtrip2.t1 por_ana_0.rstring_mux_0.otrip_decoded_avdd[2] vin.t1 avss.t5 sky130_fd_pr__nfet_g5v0d10v5 ad=0.725 pd=5.29 as=0.725 ps=5.29 w=5 l=0.6
X133 por_ana_0.comparator_0.vinn.t17 avss.t124 por_ana_0.comparator_0.vinn.t17 avss.t125 sky130_fd_pr__nfet_g5v0d10v5 ad=0.725 pd=5.29 as=0 ps=0 w=5 l=0.6
X134 dvdd.t245 por_ana_0.rc_osc_0.in por_ana_0.rc_osc_0.m dvdd.t244 sky130_fd_pr__pfet_01v8 ad=0.145 pd=1.29 as=0.145 ps=1.29 w=1 l=0.5
X135 a_32607_21859# a_32182_21903# dvss.t1122 dvss.t1121 sky130_fd_pr__nfet_g5v0d10v5 ad=0.21 pd=1.78 as=0.3975 ps=3.53 w=1.5 l=0.5
X136 por_ana_0.rstring_mux_0.vtop.t14 por_ana_0.rstring_mux_0.ena_b avdd.t247 avdd.t246 sky130_fd_pr__pfet_g5v0d10v5 ad=0.725 pd=5.29 as=1.45 ps=10.58 w=5 l=0.6
X137 a_33930_36551# a_32740_36179# a_33821_36551# dvss.t448 sky130_fd_pr__special_nfet_01v8 ad=0.0669 pd=0.75 as=0.0711 ps=0.755 w=0.36 l=0.15
X138 a_37488_30189# a_36972_30189# a_37393_30189# dvss.t29 sky130_fd_pr__special_nfet_01v8 ad=0.0594 pd=0.69 as=0.066 ps=0.745 w=0.36 l=0.15
X139 por_ana_0.ibias_gen_0.vstart.t9 vbg_1v2.t2 por_ana_0.ibias_gen_0.vn0.t6 avss.t150 sky130_fd_pr__nfet_g5v0d10v5 ad=0.725 pd=5.29 as=0.725 ps=5.29 w=5 l=0.6
X140 dvdd.t253 por_dig_0._042_ a_37528_31527# dvdd.t252 sky130_fd_pr__pfet_01v8_hvt ad=0.14 pd=1.28 as=0.265 ps=2.53 w=1 l=0.15
X141 a_34102_29965# por_dig_0.net30 dvss.t375 dvss.t374 sky130_fd_pr__nfet_01v8 ad=0.08775 pd=0.92 as=0.08775 ps=0.92 w=0.65 l=0.15
X142 dvss.t837 a_31413_32339# por_timed_out.t1 dvss.t836 sky130_fd_pr__nfet_01v8 ad=0.097 pd=0.975 as=0.08775 ps=0.92 w=0.65 l=0.15
X143 a_7835_22912# a_7457_15512# avss.t27 sky130_fd_pr__res_xhigh_po_1p41 l=35
X144 por_ana_0.rstring_mux_0.otrip_decoded_b_avdd[1] por_ana_0.rstring_mux_0.otrip_decoded_avdd[1] avss.t33 avss.t32 sky130_fd_pr__nfet_g5v0d10v5 ad=0.21375 pd=2.07 as=0.21375 ps=2.07 w=0.75 l=0.5
X145 a_33161_36539# por_dig_0._007_ dvss.t17 dvss.t16 sky130_fd_pr__nfet_01v8 ad=0.066 pd=0.745 as=0.2205 ps=1.89 w=0.42 l=0.15
X146 dvdd.t1096 otrip[2].t2 a_34615_28013# dvdd.t1095 sky130_fd_pr__pfet_01v8_hvt ad=0.14075 pd=1.325 as=0.1092 ps=1.36 w=0.42 l=0.15
X147 a_33444_31037# por_dig_0.net24 dvdd.t365 dvdd.t364 sky130_fd_pr__pfet_01v8_hvt ad=0.0567 pd=0.69 as=0.0819 ps=0.81 w=0.42 l=0.15
X148 por_dig_0.clknet_0_osc_ck.t15 a_34387_32909# dvss.t165 dvss.t164 sky130_fd_pr__nfet_01v8 ad=0.0588 pd=0.7 as=0.0588 ps=0.7 w=0.42 l=0.15
X149 a_19676_13935# a_20054_6535# avss.t136 sky130_fd_pr__res_xhigh_po_1p41 l=35
X150 por_ana_0.comparator_1.vnn.t15 por_ana_0.comparator_1.vnn.t14 avdd.t632 avdd.t403 sky130_fd_pr__pfet_g5v0d10v5 ad=0.145 pd=1.29 as=0.145 ps=1.29 w=1 l=8
X151 a_35666_35629# a_35500_35629# dvdd.t442 dvdd.t441 sky130_fd_pr__pfet_01v8_hvt ad=0.1664 pd=1.8 as=0.0864 ps=0.91 w=0.64 l=0.15
X152 a_38136_33427# a_37961_33453# a_38315_33453# dvss.t621 sky130_fd_pr__nfet_01v8 ad=0.1092 pd=1.36 as=0.06405 ps=0.725 w=0.42 l=0.15
X153 por_ana_0.sky130_fd_sc_hd__inv_4_4.Y por_dig_0.por_unbuf.t5 dvdd.t686 dvdd.t685 sky130_fd_pr__pfet_01v8_hvt ad=0.135 pd=1.27 as=0.26 ps=2.52 w=1 l=0.15
X154 dvdd.t1294 dvdd.t1292 dvdd.t1294 dvdd.t1293 sky130_fd_pr__pfet_01v8 ad=0.145 pd=1.29 as=0 ps=0 w=1 l=0.18
X155 dvss.t1945 dvdd.t1815 dvss.t1944 dvss.t1740 sky130_fd_pr__nfet_01v8 ad=0.143 pd=1.62 as=0 ps=0 w=0.55 l=0.59
X156 dvss.t604 a_33162_35603# por_dig_0._008_ dvss.t603 sky130_fd_pr__nfet_01v8 ad=0.25675 pd=1.44 as=0.169 ps=1.82 w=0.65 l=0.15
X157 por_ana_0.comparator_1.vt.t53 vbg_1v2.t3 por_ana_0.comparator_1.vnn por_ana_0.comparator_1.vt.t41 sky130_fd_pr__nfet_g5v0d10v5 ad=0.145 pd=1.29 as=0.145 ps=1.29 w=1 l=8
X158 avdd.t478 por_ana_0.comparator_0.n1.t4 por_ana_0.dcomp3v3uv avdd.t477 sky130_fd_pr__pfet_g5v0d10v5 ad=0.145 pd=1.29 as=0.145 ps=1.29 w=1 l=0.6
X159 avdd.t323 por_ana_0.sky130_fd_sc_hvl__inv_16_0.A.t8 porb_h.t15 avdd.t322 sky130_fd_pr__pfet_g5v0d10v5 ad=0.21 pd=1.78 as=0.21 ps=1.78 w=1.5 l=0.5
X160 dvss.t1943 dvdd.t1816 dvss.t1942 dvss.t1941 sky130_fd_pr__nfet_01v8 ad=0.143 pd=1.62 as=0 ps=0 w=0.55 l=4.73
X161 a_36382_31795# por_dig_0._037_ a_36669_31821# dvdd.t99 sky130_fd_pr__pfet_01v8_hvt ad=0.1375 pd=1.275 as=0.21 ps=1.42 w=1 l=0.15
X162 dvdd.t688 por_dig_0.por_unbuf.t6 por_ana_0.sky130_fd_sc_hd__inv_4_4.Y dvdd.t687 sky130_fd_pr__pfet_01v8_hvt ad=0.26 pd=2.52 as=0.135 ps=1.27 w=1 l=0.15
X163 dvdd.t1249 por_dig_0.otrip_decoded[4] a_25478_22885# dvdd.t1248 sky130_fd_pr__pfet_01v8_hvt ad=0.1176 pd=1.12 as=0.2478 ps=2.27 w=0.84 l=0.15
X164 a_29802_24707# a_29702_24619# dvss.t1546 dvss.t1545 sky130_fd_pr__nfet_g5v0d10v5 ad=0.21 pd=1.78 as=0.3975 ps=3.53 w=1.5 l=0.5
X165 dvdd.t497 a_35583_34541# por_dig_0.clknet_1_1__leaf_osc_ck.t29 dvdd.t496 sky130_fd_pr__pfet_01v8_hvt ad=0.14 pd=1.28 as=0.14 ps=1.28 w=1 l=0.15
X166 a_34842_32365# por_dig_0.net32 dvss.t387 dvss.t386 sky130_fd_pr__nfet_01v8 ad=0.06825 pd=0.86 as=0.08775 ps=0.92 w=0.65 l=0.15
X167 dvdd.t299 por_ana_0.sky130_fd_sc_hd__inv_4_1.Y porb.t29 dvdd.t298 sky130_fd_pr__pfet_01v8_hvt ad=0.135 pd=1.27 as=0.135 ps=1.27 w=1 l=0.15
X168 dvdd.t1539 dvss.t2239 dvdd.t1538 dvdd.t1537 sky130_fd_pr__pfet_01v8_hvt ad=0.2262 pd=2.26 as=0 ps=0 w=0.87 l=4.73
X169 a_16652_13935# a_17030_6535# avss.t319 sky130_fd_pr__res_xhigh_po_1p41 l=35
X170 dvdd.t1437 por_dig_0.otrip_decoded[5].t4 a_25478_24619# dvdd.t1436 sky130_fd_pr__pfet_01v8_hvt ad=0.1176 pd=1.12 as=0.2478 ps=2.27 w=0.84 l=0.15
X171 a_37952_31037# a_37777_31111# a_38131_31099# dvss.t1472 sky130_fd_pr__nfet_01v8 ad=0.1092 pd=1.36 as=0.06405 ps=0.725 w=0.42 l=0.15
X172 a_35612_33595# por_dig_0.clknet_1_1__leaf_osc_ck.t32 dvss.t699 dvss.t698 sky130_fd_pr__nfet_01v8 ad=0.1092 pd=1.36 as=0.0567 ps=0.69 w=0.42 l=0.15
X173 a_25863_32638# a_25495_33620# dvss.t1467 dvss.t1466 sky130_fd_pr__nfet_01v8 ad=0.2478 pd=2.27 as=0.1176 ps=1.12 w=0.84 l=0.15
X174 dvss.t1161 por_ana_0.sky130_fd_sc_hd__inv_4_4.Y por.t12 dvss.t1160 sky130_fd_pr__nfet_01v8 ad=0.08775 pd=0.92 as=0.08775 ps=0.92 w=0.65 l=0.15
X175 por_ana_0.rstring_mux_0.vtrip2.t7 por_ana_0.rstring_mux_0.otrip_decoded_b_avdd[2] vin.t37 avdd.t527 sky130_fd_pr__pfet_g5v0d10v5 ad=0.725 pd=5.29 as=0.725 ps=5.29 w=5 l=0.6
X176 por_ana_0.comparator_0.vinn.t5 avdd.t168 por_ana_0.comparator_0.vinn.t5 avdd.t169 sky130_fd_pr__pfet_g5v0d10v5 ad=0.725 pd=5.29 as=0 ps=0 w=5 l=0.6
X177 por_ana_0.rc_osc_0.m por_ana_0.rc_osc_0.in dvss.t296 dvss.t295 sky130_fd_pr__nfet_01v8 ad=0.145 pd=1.29 as=0.1475 ps=1.295 w=1 l=0.5
X178 dvss.t787 a_27958_23637# a_28383_23593# dvss.t786 sky130_fd_pr__nfet_g5v0d10v5 ad=0.21 pd=1.78 as=0.21 ps=1.78 w=1.5 l=0.5
X179 a_35776_28013# por_dig_0.net6 dvdd.t682 dvdd.t681 sky130_fd_pr__pfet_01v8_hvt ad=0.06615 pd=0.735 as=0.0567 ps=0.69 w=0.42 l=0.15
X180 a_33161_35451# por_dig_0._008_ dvss.t389 dvss.t388 sky130_fd_pr__nfet_01v8 ad=0.066 pd=0.745 as=0.2205 ps=1.89 w=0.42 l=0.15
X181 por_dig_0.otrip_decoded[3].t1 a_37800_28013# dvss.t1487 dvss.t523 sky130_fd_pr__nfet_01v8 ad=0.08775 pd=0.92 as=0.097 ps=0.975 w=0.65 l=0.15
X182 por_ana_0.comparator_0.vpp.t16 vbg_1v2.t4 por_ana_0.comparator_0.vt.t53 por_ana_0.comparator_0.vt.t40 sky130_fd_pr__nfet_g5v0d10v5 ad=0.145 pd=1.29 as=0.145 ps=1.29 w=1 l=8
X183 por_dig_0.net8 a_32004_30189# dvdd.t1172 dvdd.t1171 sky130_fd_pr__pfet_01v8_hvt ad=0.2054 pd=2.1 as=0.11455 ps=1.08 w=0.79 l=0.15
X184 vin.t21 avss.t122 vin.t21 avss.t123 sky130_fd_pr__nfet_g5v0d10v5 ad=0.725 pd=5.29 as=0 ps=0 w=5 l=0.6
X185 dvss.t516 a_33926_24619# a_34026_24707# dvss.t40 sky130_fd_pr__nfet_g5v0d10v5 ad=0.21 pd=1.78 as=0.21 ps=1.78 w=1.5 l=0.5
X186 a_37046_32915# a_36880_32915# dvdd.t434 dvdd.t433 sky130_fd_pr__pfet_01v8_hvt ad=0.1664 pd=1.8 as=0.0864 ps=0.91 w=0.64 l=0.15
X187 a_35394_28013# a_35217_28013# dvss.t524 dvss.t523 sky130_fd_pr__nfet_01v8 ad=0.169 pd=1.82 as=0.097 ps=0.975 w=0.65 l=0.15
X188 a_39718_33605# por_dig_0.cnt_st\[0\] a_39881_33703# dvdd.t1117 sky130_fd_pr__pfet_01v8_hvt ad=0.1092 pd=1.36 as=0.0441 ps=0.63 w=0.42 l=0.15
X189 dcomp.t12 por_ana_0.sky130_fd_sc_hd__inv_4_3.Y dvss.t73 dvss.t72 sky130_fd_pr__nfet_01v8 ad=0.08775 pd=0.92 as=0.08775 ps=0.92 w=0.65 l=0.15
X190 a_34719_23593# a_34294_23637# dvss.t1349 dvss.t1348 sky130_fd_pr__nfet_g5v0d10v5 ad=0.3975 pd=3.53 as=0.21 ps=1.78 w=1.5 l=0.5
X191 a_34824_30189# a_34378_30189# a_34728_30189# dvss.t1351 sky130_fd_pr__special_nfet_01v8 ad=0.1401 pd=1.1 as=0.0594 ps=0.69 w=0.36 l=0.15
X192 a_39328_34515# por_dig_0.cnt_st\[0\] dvdd.t1116 dvdd.t1115 sky130_fd_pr__pfet_01v8_hvt ad=0.1092 pd=1.36 as=0.0567 ps=0.69 w=0.42 l=0.15
X193 a_34486_33703# por_dig_0.cnt_por\[4\] dvdd.t1260 dvdd.t1259 sky130_fd_pr__pfet_01v8_hvt ad=0.165 pd=1.33 as=0.165 ps=1.33 w=1 l=0.15
X194 a_33983_36173# a_32906_36179# a_33821_36551# dvdd.t615 sky130_fd_pr__pfet_01v8_hvt ad=0.0567 pd=0.69 as=0.0588 ps=0.7 w=0.42 l=0.15
X195 por_ana_0.rc_osc_0.in dvss.t294 sky130_fd_pr__cap_mim_m3_2 l=30 w=30
X196 dvss.t1940 dvdd.t1817 dvss.t1939 dvss.t1938 sky130_fd_pr__nfet_01v8 ad=0.143 pd=1.62 as=0 ps=0 w=0.55 l=4.73
X197 por_dig_0.net17 a_35130_28673# dvdd.t617 dvdd.t616 sky130_fd_pr__pfet_01v8_hvt ad=0.26 pd=2.52 as=0.142225 ps=1.335 w=1 l=0.15
X198 por_dig_0._009_ por_dig_0._048_ dvdd.t941 dvdd.t940 sky130_fd_pr__pfet_01v8_hvt ad=0.174 pd=1.39 as=0.182 ps=1.92 w=0.7 l=0.15
X199 avss.t314 a_2165_15512# avss.t27 sky130_fd_pr__res_xhigh_po_1p41 l=35
X200 a_34719_21859# a_34294_21903# dvss.t1497 dvss.t1496 sky130_fd_pr__nfet_g5v0d10v5 ad=0.21 pd=1.78 as=0.3975 ps=3.53 w=1.5 l=0.5
X201 por_dig_0.otrip_decoded[6].t1 a_35960_29101# dvss.t1501 dvss.t1500 sky130_fd_pr__nfet_01v8 ad=0.08775 pd=0.92 as=0.097 ps=0.975 w=0.65 l=0.15
X202 a_34398_34541# por_dig_0.cnt_por\[0\].t8 a_34302_34541# dvss.t636 sky130_fd_pr__nfet_01v8 ad=0.08775 pd=0.92 as=0.10725 ps=0.98 w=0.65 l=0.15
X203 dvdd.t1222 por_dig_0._011_ a_32651_33819# dvdd.t1221 sky130_fd_pr__pfet_01v8_hvt ad=0.1092 pd=1.36 as=0.0651 ps=0.73 w=0.42 l=0.15
X204 por_ana_0.rstring_mux_0.vtrip_decoded_avdd[1] a_31009_24371# dvss.t1504 dvss.t517 sky130_fd_pr__nfet_g5v0d10v5 ad=0.19875 pd=2.03 as=0.121875 ps=1.075 w=0.75 l=0.5
X205 por_dig_0.cnt_por\[10\] a_36480_31251# dvdd.t1226 dvdd.t1225 sky130_fd_pr__pfet_01v8_hvt ad=0.26 pd=2.52 as=0.3012 ps=2.66 w=1 l=0.15
X206 dvss.t71 por_ana_0.sky130_fd_sc_hd__inv_4_3.Y dcomp.t11 dvss.t70 sky130_fd_pr__nfet_01v8 ad=0.08775 pd=0.92 as=0.08775 ps=0.92 w=0.65 l=0.15
X207 avdd.t204 por_ana_0.comparator_0.vpp.t49 por_ana_0.comparator_0.vnn.t11 avdd.t180 sky130_fd_pr__pfet_g5v0d10v5 ad=0.145 pd=1.29 as=0.145 ps=1.29 w=1 l=8
X208 a_23734_23637# a_23366_24619# dvss.t1524 dvss.t1523 sky130_fd_pr__nfet_01v8 ad=0.2478 pd=2.27 as=0.1176 ps=1.12 w=0.84 l=0.15
X209 a_36262_32365# por_dig_0._033_ dvss.t39 dvss.t38 sky130_fd_pr__nfet_01v8 ad=0.0441 pd=0.63 as=0.13165 ps=1.14 w=0.42 l=0.15
X210 a_34570_32141# por_dig_0.cnt_por\[6\] dvss.t461 dvss.t460 sky130_fd_pr__nfet_01v8 ad=0.08775 pd=0.92 as=0.169 ps=1.82 w=0.65 l=0.15
X211 a_21944_13935# a_21566_6535# avss.t306 sky130_fd_pr__res_xhigh_po_1p41 l=35
X212 a_34202_36717# por_dig_0._033_ por_dig_0._016_ dvss.t37 sky130_fd_pr__nfet_01v8 ad=0.08775 pd=0.92 as=0.169 ps=1.82 w=0.65 l=0.15
X213 por_ana_0.comparator_0.vt.t35 avss.t410 por_ana_0.comparator_0.vnn.t22 por_ana_0.comparator_0.vt.t21 sky130_fd_pr__nfet_g5v0d10v5 ad=0.29 pd=2.58 as=0.145 ps=1.29 w=1 l=8
X214 avss.t400 por_ana_0.ibias_gen_0.vn1.t10 por_ana_0.ibias_gen_0.vp1.t9 avss.t396 sky130_fd_pr__nfet_g5v0d10v5 ad=0.725 pd=5.29 as=0.725 ps=5.29 w=5 l=8
X215 vin.t34 por_ana_0.rstring_mux_0.otrip_decoded_avdd[0] por_ana_0.rstring_mux_0.vtrip0.t9 avss.t310 sky130_fd_pr__nfet_g5v0d10v5 ad=0.725 pd=5.29 as=0.725 ps=5.29 w=5 l=0.6
X216 a_34762_36173# por_dig_0.cnt_por\[1\] dvdd.t1170 dvdd.t1169 sky130_fd_pr__pfet_01v8_hvt ad=0.165 pd=1.33 as=0.165 ps=1.33 w=1 l=0.15
X217 a_34746_29645# por_dig_0.net29 dvdd.t183 dvdd.t70 sky130_fd_pr__pfet_01v8_hvt ad=0.135 pd=1.27 as=0.135 ps=1.27 w=1 l=0.15