* NGSPICE file created from sky130_ajc_ip__por.ext - technology: sky130A

.subckt sky130_fd_pr__nfet_g5v0d10v5_RBNV2H a_n287_n188# a_n29_n100# a_345_n188# a_n445_n188#
+ a_n187_n100# a_503_n188# a_n603_n188# a_n345_n100# a_129_n100# a_n503_n100# a_n661_n100#
+ a_287_n100# a_445_n100# a_29_n188# a_n129_n188# a_603_n100# a_187_n188# a_n795_n322#
X0 a_445_n100# a_345_n188# a_287_n100# a_n795_n322# sky130_fd_pr__nfet_g5v0d10v5 ad=0.145 pd=1.29 as=0.145 ps=1.29 w=1 l=0.5
X1 a_603_n100# a_503_n188# a_445_n100# a_n795_n322# sky130_fd_pr__nfet_g5v0d10v5 ad=0.29 pd=2.58 as=0.145 ps=1.29 w=1 l=0.5
X2 a_129_n100# a_29_n188# a_n29_n100# a_n795_n322# sky130_fd_pr__nfet_g5v0d10v5 ad=0.145 pd=1.29 as=0.145 ps=1.29 w=1 l=0.5
X3 a_n187_n100# a_n287_n188# a_n345_n100# a_n795_n322# sky130_fd_pr__nfet_g5v0d10v5 ad=0.145 pd=1.29 as=0.145 ps=1.29 w=1 l=0.5
X4 a_n345_n100# a_n445_n188# a_n503_n100# a_n795_n322# sky130_fd_pr__nfet_g5v0d10v5 ad=0.145 pd=1.29 as=0.145 ps=1.29 w=1 l=0.5
X5 a_n503_n100# a_n603_n188# a_n661_n100# a_n795_n322# sky130_fd_pr__nfet_g5v0d10v5 ad=0.145 pd=1.29 as=0.29 ps=2.58 w=1 l=0.5
X6 a_n29_n100# a_n129_n188# a_n187_n100# a_n795_n322# sky130_fd_pr__nfet_g5v0d10v5 ad=0.145 pd=1.29 as=0.145 ps=1.29 w=1 l=0.5
X7 a_287_n100# a_187_n188# a_129_n100# a_n795_n322# sky130_fd_pr__nfet_g5v0d10v5 ad=0.145 pd=1.29 as=0.145 ps=1.29 w=1 l=0.5
.ends

.subckt sky130_fd_sc_hd__inv_16 A VGND VNB VPB VPWR Y
X0 Y A VPWR VPB sky130_fd_pr__pfet_01v8_hvt ad=0.135 pd=1.27 as=0.135 ps=1.27 w=1 l=0.15
X1 VPWR A Y VPB sky130_fd_pr__pfet_01v8_hvt ad=0.26 pd=2.52 as=0.135 ps=1.27 w=1 l=0.15
X2 VGND A Y VNB sky130_fd_pr__nfet_01v8 ad=0.08775 pd=0.92 as=0.08775 ps=0.92 w=0.65 l=0.15
X3 Y A VPWR VPB sky130_fd_pr__pfet_01v8_hvt ad=0.135 pd=1.27 as=0.135 ps=1.27 w=1 l=0.15
X4 VGND A Y VNB sky130_fd_pr__nfet_01v8 ad=0.08775 pd=0.92 as=0.08775 ps=0.92 w=0.65 l=0.15
X5 VGND A Y VNB sky130_fd_pr__nfet_01v8 ad=0.08775 pd=0.92 as=0.08775 ps=0.92 w=0.65 l=0.15
X6 Y A VPWR VPB sky130_fd_pr__pfet_01v8_hvt ad=0.135 pd=1.27 as=0.26 ps=2.52 w=1 l=0.15
X7 VGND A Y VNB sky130_fd_pr__nfet_01v8 ad=0.169 pd=1.82 as=0.08775 ps=0.92 w=0.65 l=0.15
X8 VPWR A Y VPB sky130_fd_pr__pfet_01v8_hvt ad=0.135 pd=1.27 as=0.135 ps=1.27 w=1 l=0.15
X9 Y A VGND VNB sky130_fd_pr__nfet_01v8 ad=0.08775 pd=0.92 as=0.08775 ps=0.92 w=0.65 l=0.15
X10 VPWR A Y VPB sky130_fd_pr__pfet_01v8_hvt ad=0.135 pd=1.27 as=0.135 ps=1.27 w=1 l=0.15
X11 Y A VGND VNB sky130_fd_pr__nfet_01v8 ad=0.08775 pd=0.92 as=0.08775 ps=0.92 w=0.65 l=0.15
X12 Y A VPWR VPB sky130_fd_pr__pfet_01v8_hvt ad=0.135 pd=1.27 as=0.135 ps=1.27 w=1 l=0.15
X13 VPWR A Y VPB sky130_fd_pr__pfet_01v8_hvt ad=0.135 pd=1.27 as=0.135 ps=1.27 w=1 l=0.15
X14 Y A VPWR VPB sky130_fd_pr__pfet_01v8_hvt ad=0.135 pd=1.27 as=0.135 ps=1.27 w=1 l=0.15
X15 VGND A Y VNB sky130_fd_pr__nfet_01v8 ad=0.08775 pd=0.92 as=0.08775 ps=0.92 w=0.65 l=0.15
X16 Y A VGND VNB sky130_fd_pr__nfet_01v8 ad=0.08775 pd=0.92 as=0.169 ps=1.82 w=0.65 l=0.15
X17 VGND A Y VNB sky130_fd_pr__nfet_01v8 ad=0.08775 pd=0.92 as=0.08775 ps=0.92 w=0.65 l=0.15
X18 VGND A Y VNB sky130_fd_pr__nfet_01v8 ad=0.08775 pd=0.92 as=0.08775 ps=0.92 w=0.65 l=0.15
X19 Y A VPWR VPB sky130_fd_pr__pfet_01v8_hvt ad=0.135 pd=1.27 as=0.135 ps=1.27 w=1 l=0.15
X20 VGND A Y VNB sky130_fd_pr__nfet_01v8 ad=0.08775 pd=0.92 as=0.08775 ps=0.92 w=0.65 l=0.15
X21 Y A VPWR VPB sky130_fd_pr__pfet_01v8_hvt ad=0.135 pd=1.27 as=0.135 ps=1.27 w=1 l=0.15
X22 VPWR A Y VPB sky130_fd_pr__pfet_01v8_hvt ad=0.135 pd=1.27 as=0.135 ps=1.27 w=1 l=0.15
X23 VPWR A Y VPB sky130_fd_pr__pfet_01v8_hvt ad=0.135 pd=1.27 as=0.135 ps=1.27 w=1 l=0.15
X24 VPWR A Y VPB sky130_fd_pr__pfet_01v8_hvt ad=0.135 pd=1.27 as=0.135 ps=1.27 w=1 l=0.15
X25 Y A VGND VNB sky130_fd_pr__nfet_01v8 ad=0.08775 pd=0.92 as=0.08775 ps=0.92 w=0.65 l=0.15
X26 Y A VPWR VPB sky130_fd_pr__pfet_01v8_hvt ad=0.135 pd=1.27 as=0.135 ps=1.27 w=1 l=0.15
X27 Y A VGND VNB sky130_fd_pr__nfet_01v8 ad=0.08775 pd=0.92 as=0.08775 ps=0.92 w=0.65 l=0.15
X28 Y A VGND VNB sky130_fd_pr__nfet_01v8 ad=0.08775 pd=0.92 as=0.08775 ps=0.92 w=0.65 l=0.15
X29 Y A VGND VNB sky130_fd_pr__nfet_01v8 ad=0.08775 pd=0.92 as=0.08775 ps=0.92 w=0.65 l=0.15
X30 VPWR A Y VPB sky130_fd_pr__pfet_01v8_hvt ad=0.135 pd=1.27 as=0.135 ps=1.27 w=1 l=0.15
X31 Y A VGND VNB sky130_fd_pr__nfet_01v8 ad=0.08775 pd=0.92 as=0.08775 ps=0.92 w=0.65 l=0.15
.ends

.subckt sky130_fd_sc_hvl__lsbufhv2lv_1 A LVPWR VGND VNB VPB VPWR X
X0 a_30_1337# A VPWR VPB sky130_fd_pr__pfet_g5v0d10v5 ad=0.1113 pd=1.37 as=0.1197 ps=1.41 w=0.42 l=0.5
X1 VGND a_30_1337# a_30_207# VNB sky130_fd_pr__nfet_g5v0d10v5 ad=0.178875 pd=1.26 as=0.1197 ps=1.41 w=0.42 l=0.5
X2 VGND a_30_207# a_389_141# VNB sky130_fd_pr__nfet_g5v0d10v5 ad=0.19875 pd=2.03 as=0.105 ps=1.03 w=0.75 l=0.5
X3 VGND a_30_207# a_389_141# VNB sky130_fd_pr__nfet_g5v0d10v5 ad=0.19875 pd=2.03 as=0.19875 ps=2.03 w=0.75 l=0.5
X4 a_389_1337# a_30_1337# VGND VNB sky130_fd_pr__nfet_g5v0d10v5 ad=0.19875 pd=2.03 as=0.105 ps=1.03 w=0.75 l=0.5
X5 VGND a_30_207# a_389_141# VNB sky130_fd_pr__nfet_g5v0d10v5 ad=0.19875 pd=2.03 as=0.19875 ps=2.03 w=0.75 l=0.5
X6 VGND A a_30_1337# VNB sky130_fd_pr__nfet_g5v0d10v5 ad=0.178875 pd=1.26 as=0.1197 ps=1.41 w=0.42 l=0.5
X7 VGND a_30_1337# a_389_1337# VNB sky130_fd_pr__nfet_g5v0d10v5 ad=0.19875 pd=2.03 as=0.19875 ps=2.03 w=0.75 l=0.5
X8 a_389_141# a_30_207# VGND VNB sky130_fd_pr__nfet_g5v0d10v5 ad=0.105 pd=1.03 as=0.178875 ps=1.26 w=0.75 l=0.5
X9 VGND a_30_1337# a_389_1337# VNB sky130_fd_pr__nfet_g5v0d10v5 ad=0.105 pd=1.03 as=0.105 ps=1.03 w=0.75 l=0.5
X10 LVPWR a_389_141# X LVPWR sky130_fd_pr__pfet_01v8_hvt ad=0.1568 pd=1.4 as=0.2968 ps=2.77 w=1.12 l=0.15
X11 VGND a_389_141# X VNB sky130_fd_pr__nfet_01v8 ad=0.1961 pd=2.01 as=0.1961 ps=2.01 w=0.74 l=0.15
X12 a_389_1337# a_30_1337# VGND VNB sky130_fd_pr__nfet_g5v0d10v5 ad=0.105 pd=1.03 as=0.178875 ps=1.26 w=0.75 l=0.5
X13 LVPWR a_389_1337# a_389_141# LVPWR sky130_fd_pr__pfet_01v8_hvt ad=0.2968 pd=2.77 as=0.2968 ps=2.77 w=1.12 l=0.15
X14 a_30_207# a_30_1337# VPWR VPB sky130_fd_pr__pfet_g5v0d10v5 ad=0.1113 pd=1.37 as=0.1197 ps=1.41 w=0.42 l=0.5
X15 a_389_1337# a_389_141# LVPWR LVPWR sky130_fd_pr__pfet_01v8_hvt ad=0.2968 pd=2.77 as=0.1568 ps=1.4 w=1.12 l=0.15
.ends

.subckt sky130_fd_pr__nfet_g5v0d10v5_K8JYEQ a_n3678_n531# a_296_n557# a_950_n531#
+ a_n2374_n557# a_3976_n531# a_2908_n531# a_n1306_n557# a_n3442_n557# a_n2076_n531#
+ a_n3144_n531# a_2610_n557# a_1542_n557# a_n950_n557# a_n1008_n531# a_n4212_n531#
+ a_3442_n531# a_2374_n531# a_1306_n531# a_n652_n531# a_1898_n557# a_n3798_n557# a_2966_n557#
+ a_772_n531# a_118_n557# a_3798_n531# a_n1720_n531# a_n1128_n557# a_n2196_n557# a_n3264_n557#
+ a_1364_n557# a_3500_n557# a_2432_n557# a_n772_n557# a_2196_n531# a_n474_n531# a_n4034_n531#
+ a_3264_n531# a_1128_n531# a_830_n557# a_3856_n557# a_2788_n557# a_n1840_n557# a_594_n531#
+ a_n1542_n531# a_n2610_n531# a_n3086_n557# a_2254_n557# a_1186_n557# a_n594_n557#
+ a_n2018_n557# a_n4154_n557# a_1840_n531# a_3322_n557# a_3086_n531# a_n296_n531#
+ a_n1898_n531# a_n2966_n531# a_4154_n531# a_2018_n531# a_60_n531# a_652_n557# a_3678_n557#
+ a_n1662_n557# a_n2730_n557# a_n1364_n531# a_n60_n557# a_416_n531# a_n2432_n531#
+ a_1662_n531# a_n3500_n531# a_3144_n557# a_2076_n557# a_1008_n557# a_2730_n531# a_n416_n557#
+ a_n2788_n531# a_n3856_n531# a_474_n557# a_n118_n531# a_n1484_n557# a_n2552_n557#
+ a_n3620_n557# a_238_n531# a_n1186_n531# a_n2254_n531# a_1720_n557# a_n3322_n531#
+ a_n4346_n691# a_2552_n531# a_1484_n531# a_n830_n531# a_4034_n557# a_n3976_n557#
+ a_3620_n531# a_n238_n557# a_n2908_n557#
X0 a_n3856_n531# a_n3976_n557# a_n4034_n531# a_n4346_n691# sky130_fd_pr__nfet_g5v0d10v5 ad=0.725 pd=5.29 as=0.725 ps=5.29 w=5 l=0.6
X1 a_2196_n531# a_2076_n557# a_2018_n531# a_n4346_n691# sky130_fd_pr__nfet_g5v0d10v5 ad=0.725 pd=5.29 as=0.725 ps=5.29 w=5 l=0.6
X2 a_n2610_n531# a_n2730_n557# a_n2788_n531# a_n4346_n691# sky130_fd_pr__nfet_g5v0d10v5 ad=0.725 pd=5.29 as=0.725 ps=5.29 w=5 l=0.6
X3 a_n2254_n531# a_n2374_n557# a_n2432_n531# a_n4346_n691# sky130_fd_pr__nfet_g5v0d10v5 ad=0.725 pd=5.29 as=0.725 ps=5.29 w=5 l=0.6
X4 a_n652_n531# a_n772_n557# a_n830_n531# a_n4346_n691# sky130_fd_pr__nfet_g5v0d10v5 ad=0.725 pd=5.29 as=0.725 ps=5.29 w=5 l=0.6
X5 a_2018_n531# a_1898_n557# a_1840_n531# a_n4346_n691# sky130_fd_pr__nfet_g5v0d10v5 ad=0.725 pd=5.29 as=0.725 ps=5.29 w=5 l=0.6
X6 a_n1008_n531# a_n1128_n557# a_n1186_n531# a_n4346_n691# sky130_fd_pr__nfet_g5v0d10v5 ad=0.725 pd=5.29 as=0.725 ps=5.29 w=5 l=0.6
X7 a_594_n531# a_474_n557# a_416_n531# a_n4346_n691# sky130_fd_pr__nfet_g5v0d10v5 ad=0.725 pd=5.29 as=0.725 ps=5.29 w=5 l=0.6
X8 a_3264_n531# a_3144_n557# a_3086_n531# a_n4346_n691# sky130_fd_pr__nfet_g5v0d10v5 ad=0.725 pd=5.29 as=0.725 ps=5.29 w=5 l=0.6
X9 a_n3322_n531# a_n3442_n557# a_n3500_n531# a_n4346_n691# sky130_fd_pr__nfet_g5v0d10v5 ad=0.725 pd=5.29 as=0.725 ps=5.29 w=5 l=0.6
X10 a_60_n531# a_n60_n557# a_n118_n531# a_n4346_n691# sky130_fd_pr__nfet_g5v0d10v5 ad=0.725 pd=5.29 as=0.725 ps=5.29 w=5 l=0.6
X11 a_3086_n531# a_2966_n557# a_2908_n531# a_n4346_n691# sky130_fd_pr__nfet_g5v0d10v5 ad=0.725 pd=5.29 as=0.725 ps=5.29 w=5 l=0.6
X12 a_1484_n531# a_1364_n557# a_1306_n531# a_n4346_n691# sky130_fd_pr__nfet_g5v0d10v5 ad=0.725 pd=5.29 as=0.725 ps=5.29 w=5 l=0.6
X13 a_n1542_n531# a_n1662_n557# a_n1720_n531# a_n4346_n691# sky130_fd_pr__nfet_g5v0d10v5 ad=0.725 pd=5.29 as=0.725 ps=5.29 w=5 l=0.6
X14 a_2552_n531# a_2432_n557# a_2374_n531# a_n4346_n691# sky130_fd_pr__nfet_g5v0d10v5 ad=0.725 pd=5.29 as=0.725 ps=5.29 w=5 l=0.6
X15 a_n3678_n531# a_n3798_n557# a_n3856_n531# a_n4346_n691# sky130_fd_pr__nfet_g5v0d10v5 ad=0.725 pd=5.29 as=0.725 ps=5.29 w=5 l=0.6
X16 a_950_n531# a_830_n557# a_772_n531# a_n4346_n691# sky130_fd_pr__nfet_g5v0d10v5 ad=0.725 pd=5.29 as=0.725 ps=5.29 w=5 l=0.6
X17 a_3620_n531# a_3500_n557# a_3442_n531# a_n4346_n691# sky130_fd_pr__nfet_g5v0d10v5 ad=0.725 pd=5.29 as=0.725 ps=5.29 w=5 l=0.6
X18 a_n2076_n531# a_n2196_n557# a_n2254_n531# a_n4346_n691# sky130_fd_pr__nfet_g5v0d10v5 ad=0.725 pd=5.29 as=0.725 ps=5.29 w=5 l=0.6
X19 a_n830_n531# a_n950_n557# a_n1008_n531# a_n4346_n691# sky130_fd_pr__nfet_g5v0d10v5 ad=0.725 pd=5.29 as=0.725 ps=5.29 w=5 l=0.6
X20 a_n474_n531# a_n594_n557# a_n652_n531# a_n4346_n691# sky130_fd_pr__nfet_g5v0d10v5 ad=0.725 pd=5.29 as=0.725 ps=5.29 w=5 l=0.6
X21 a_1840_n531# a_1720_n557# a_1662_n531# a_n4346_n691# sky130_fd_pr__nfet_g5v0d10v5 ad=0.725 pd=5.29 as=0.725 ps=5.29 w=5 l=0.6
X22 a_n3500_n531# a_n3620_n557# a_n3678_n531# a_n4346_n691# sky130_fd_pr__nfet_g5v0d10v5 ad=0.725 pd=5.29 as=0.725 ps=5.29 w=5 l=0.6
X23 a_416_n531# a_296_n557# a_238_n531# a_n4346_n691# sky130_fd_pr__nfet_g5v0d10v5 ad=0.725 pd=5.29 as=0.725 ps=5.29 w=5 l=0.6
X24 a_n3144_n531# a_n3264_n557# a_n3322_n531# a_n4346_n691# sky130_fd_pr__nfet_g5v0d10v5 ad=0.725 pd=5.29 as=0.725 ps=5.29 w=5 l=0.6
X25 a_2908_n531# a_2788_n557# a_2730_n531# a_n4346_n691# sky130_fd_pr__nfet_g5v0d10v5 ad=0.725 pd=5.29 as=0.725 ps=5.29 w=5 l=0.6
X26 a_n1898_n531# a_n2018_n557# a_n2076_n531# a_n4346_n691# sky130_fd_pr__nfet_g5v0d10v5 ad=0.725 pd=5.29 as=0.725 ps=5.29 w=5 l=0.6
X27 a_4154_n531# a_4034_n557# a_3976_n531# a_n4346_n691# sky130_fd_pr__nfet_g5v0d10v5 ad=1.45 pd=10.58 as=0.725 ps=5.29 w=5 l=0.6
X28 a_n296_n531# a_n416_n557# a_n474_n531# a_n4346_n691# sky130_fd_pr__nfet_g5v0d10v5 ad=0.725 pd=5.29 as=0.725 ps=5.29 w=5 l=0.6
X29 a_1306_n531# a_1186_n557# a_1128_n531# a_n4346_n691# sky130_fd_pr__nfet_g5v0d10v5 ad=0.725 pd=5.29 as=0.725 ps=5.29 w=5 l=0.6
X30 a_3976_n531# a_3856_n557# a_3798_n531# a_n4346_n691# sky130_fd_pr__nfet_g5v0d10v5 ad=0.725 pd=5.29 as=0.725 ps=5.29 w=5 l=0.6
X31 a_n1720_n531# a_n1840_n557# a_n1898_n531# a_n4346_n691# sky130_fd_pr__nfet_g5v0d10v5 ad=0.725 pd=5.29 as=0.725 ps=5.29 w=5 l=0.6
X32 a_n1364_n531# a_n1484_n557# a_n1542_n531# a_n4346_n691# sky130_fd_pr__nfet_g5v0d10v5 ad=0.725 pd=5.29 as=0.725 ps=5.29 w=5 l=0.6
X33 a_238_n531# a_118_n557# a_60_n531# a_n4346_n691# sky130_fd_pr__nfet_g5v0d10v5 ad=0.725 pd=5.29 as=0.725 ps=5.29 w=5 l=0.6
X34 a_2374_n531# a_2254_n557# a_2196_n531# a_n4346_n691# sky130_fd_pr__nfet_g5v0d10v5 ad=0.725 pd=5.29 as=0.725 ps=5.29 w=5 l=0.6
X35 a_n2788_n531# a_n2908_n557# a_n2966_n531# a_n4346_n691# sky130_fd_pr__nfet_g5v0d10v5 ad=0.725 pd=5.29 as=0.725 ps=5.29 w=5 l=0.6
X36 a_n2432_n531# a_n2552_n557# a_n2610_n531# a_n4346_n691# sky130_fd_pr__nfet_g5v0d10v5 ad=0.725 pd=5.29 as=0.725 ps=5.29 w=5 l=0.6
X37 a_1128_n531# a_1008_n557# a_950_n531# a_n4346_n691# sky130_fd_pr__nfet_g5v0d10v5 ad=0.725 pd=5.29 as=0.725 ps=5.29 w=5 l=0.6
X38 a_n1186_n531# a_n1306_n557# a_n1364_n531# a_n4346_n691# sky130_fd_pr__nfet_g5v0d10v5 ad=0.725 pd=5.29 as=0.725 ps=5.29 w=5 l=0.6
X39 a_772_n531# a_652_n557# a_594_n531# a_n4346_n691# sky130_fd_pr__nfet_g5v0d10v5 ad=0.725 pd=5.29 as=0.725 ps=5.29 w=5 l=0.6
X40 a_3442_n531# a_3322_n557# a_3264_n531# a_n4346_n691# sky130_fd_pr__nfet_g5v0d10v5 ad=0.725 pd=5.29 as=0.725 ps=5.29 w=5 l=0.6
X41 a_1662_n531# a_1542_n557# a_1484_n531# a_n4346_n691# sky130_fd_pr__nfet_g5v0d10v5 ad=0.725 pd=5.29 as=0.725 ps=5.29 w=5 l=0.6
X42 a_n2966_n531# a_n3086_n557# a_n3144_n531# a_n4346_n691# sky130_fd_pr__nfet_g5v0d10v5 ad=0.725 pd=5.29 as=0.725 ps=5.29 w=5 l=0.6
X43 a_2730_n531# a_2610_n557# a_2552_n531# a_n4346_n691# sky130_fd_pr__nfet_g5v0d10v5 ad=0.725 pd=5.29 as=0.725 ps=5.29 w=5 l=0.6
X44 a_n4034_n531# a_n4154_n557# a_n4212_n531# a_n4346_n691# sky130_fd_pr__nfet_g5v0d10v5 ad=0.725 pd=5.29 as=1.45 ps=10.58 w=5 l=0.6
X45 a_n118_n531# a_n238_n557# a_n296_n531# a_n4346_n691# sky130_fd_pr__nfet_g5v0d10v5 ad=0.725 pd=5.29 as=0.725 ps=5.29 w=5 l=0.6
X46 a_3798_n531# a_3678_n557# a_3620_n531# a_n4346_n691# sky130_fd_pr__nfet_g5v0d10v5 ad=0.725 pd=5.29 as=0.725 ps=5.29 w=5 l=0.6
.ends

.subckt sky130_fd_pr__pfet_g5v0d10v5_4Z8MHY a_652_n562# a_n1186_n536# a_238_n536#
+ a_n1662_n562# a_3678_n562# a_n2254_n536# a_n2730_n562# a_n3322_n536# a_n60_n562#
+ a_1484_n536# a_2552_n536# a_n830_n536# a_3620_n536# w_n4412_n762# a_2076_n562# a_3144_n562#
+ a_1008_n562# a_n3678_n536# a_n416_n562# a_950_n536# a_474_n562# a_3976_n536# a_2908_n536#
+ a_n1484_n562# a_n2076_n536# a_n2552_n562# a_n3144_n536# a_n1008_n536# a_n3620_n562#
+ a_n4212_n536# a_1720_n562# a_2374_n536# a_n652_n536# a_1306_n536# a_3442_n536# a_n3976_n562#
+ a_4034_n562# a_n238_n562# a_772_n536# a_n2908_n562# a_296_n562# a_3798_n536# a_n1720_n536#
+ a_n2374_n562# a_n3442_n562# a_n1306_n562# a_n4034_n536# a_1542_n562# a_2196_n536#
+ a_n474_n536# a_2610_n562# a_n950_n562# a_1128_n536# a_3264_n536# a_n3798_n562# a_594_n536#
+ a_1898_n562# a_2966_n562# a_n1542_n536# a_n2610_n536# a_118_n562# a_n2196_n562#
+ a_1840_n536# a_n3264_n562# a_n1128_n562# a_1364_n562# a_n1898_n536# a_n296_n536#
+ a_2432_n562# a_n2966_n536# a_n772_n562# a_3086_n536# a_3500_n562# a_2018_n536# a_4154_n536#
+ a_60_n536# a_830_n562# a_2788_n562# a_n1364_n536# a_416_n536# a_n1840_n562# a_3856_n562#
+ a_n2432_n536# a_n3500_n536# a_1662_n536# a_n3086_n562# a_2730_n536# a_n4154_n562#
+ a_n2018_n562# a_1186_n562# a_2254_n562# a_n2788_n536# a_n594_n562# a_3322_n562#
+ a_n3856_n536# a_n118_n536#
X0 a_2552_n536# a_2432_n562# a_2374_n536# w_n4412_n762# sky130_fd_pr__pfet_g5v0d10v5 ad=0.725 pd=5.29 as=0.725 ps=5.29 w=5 l=0.6
X1 a_950_n536# a_830_n562# a_772_n536# w_n4412_n762# sky130_fd_pr__pfet_g5v0d10v5 ad=0.725 pd=5.29 as=0.725 ps=5.29 w=5 l=0.6
X2 a_3620_n536# a_3500_n562# a_3442_n536# w_n4412_n762# sky130_fd_pr__pfet_g5v0d10v5 ad=0.725 pd=5.29 as=0.725 ps=5.29 w=5 l=0.6
X3 a_n3678_n536# a_n3798_n562# a_n3856_n536# w_n4412_n762# sky130_fd_pr__pfet_g5v0d10v5 ad=0.725 pd=5.29 as=0.725 ps=5.29 w=5 l=0.6
X4 a_n830_n536# a_n950_n562# a_n1008_n536# w_n4412_n762# sky130_fd_pr__pfet_g5v0d10v5 ad=0.725 pd=5.29 as=0.725 ps=5.29 w=5 l=0.6
X5 a_n2076_n536# a_n2196_n562# a_n2254_n536# w_n4412_n762# sky130_fd_pr__pfet_g5v0d10v5 ad=0.725 pd=5.29 as=0.725 ps=5.29 w=5 l=0.6
X6 a_n474_n536# a_n594_n562# a_n652_n536# w_n4412_n762# sky130_fd_pr__pfet_g5v0d10v5 ad=0.725 pd=5.29 as=0.725 ps=5.29 w=5 l=0.6
X7 a_1840_n536# a_1720_n562# a_1662_n536# w_n4412_n762# sky130_fd_pr__pfet_g5v0d10v5 ad=0.725 pd=5.29 as=0.725 ps=5.29 w=5 l=0.6
X8 a_416_n536# a_296_n562# a_238_n536# w_n4412_n762# sky130_fd_pr__pfet_g5v0d10v5 ad=0.725 pd=5.29 as=0.725 ps=5.29 w=5 l=0.6
X9 a_n3500_n536# a_n3620_n562# a_n3678_n536# w_n4412_n762# sky130_fd_pr__pfet_g5v0d10v5 ad=0.725 pd=5.29 as=0.725 ps=5.29 w=5 l=0.6
X10 a_n3144_n536# a_n3264_n562# a_n3322_n536# w_n4412_n762# sky130_fd_pr__pfet_g5v0d10v5 ad=0.725 pd=5.29 as=0.725 ps=5.29 w=5 l=0.6
X11 a_2908_n536# a_2788_n562# a_2730_n536# w_n4412_n762# sky130_fd_pr__pfet_g5v0d10v5 ad=0.725 pd=5.29 as=0.725 ps=5.29 w=5 l=0.6
X12 a_4154_n536# a_4034_n562# a_3976_n536# w_n4412_n762# sky130_fd_pr__pfet_g5v0d10v5 ad=1.45 pd=10.58 as=0.725 ps=5.29 w=5 l=0.6
X13 a_n1898_n536# a_n2018_n562# a_n2076_n536# w_n4412_n762# sky130_fd_pr__pfet_g5v0d10v5 ad=0.725 pd=5.29 as=0.725 ps=5.29 w=5 l=0.6
X14 a_n296_n536# a_n416_n562# a_n474_n536# w_n4412_n762# sky130_fd_pr__pfet_g5v0d10v5 ad=0.725 pd=5.29 as=0.725 ps=5.29 w=5 l=0.6
X15 a_1306_n536# a_1186_n562# a_1128_n536# w_n4412_n762# sky130_fd_pr__pfet_g5v0d10v5 ad=0.725 pd=5.29 as=0.725 ps=5.29 w=5 l=0.6
X16 a_n1720_n536# a_n1840_n562# a_n1898_n536# w_n4412_n762# sky130_fd_pr__pfet_g5v0d10v5 ad=0.725 pd=5.29 as=0.725 ps=5.29 w=5 l=0.6
X17 a_n1364_n536# a_n1484_n562# a_n1542_n536# w_n4412_n762# sky130_fd_pr__pfet_g5v0d10v5 ad=0.725 pd=5.29 as=0.725 ps=5.29 w=5 l=0.6
X18 a_238_n536# a_118_n562# a_60_n536# w_n4412_n762# sky130_fd_pr__pfet_g5v0d10v5 ad=0.725 pd=5.29 as=0.725 ps=5.29 w=5 l=0.6
X19 a_3976_n536# a_3856_n562# a_3798_n536# w_n4412_n762# sky130_fd_pr__pfet_g5v0d10v5 ad=0.725 pd=5.29 as=0.725 ps=5.29 w=5 l=0.6
X20 a_n2788_n536# a_n2908_n562# a_n2966_n536# w_n4412_n762# sky130_fd_pr__pfet_g5v0d10v5 ad=0.725 pd=5.29 as=0.725 ps=5.29 w=5 l=0.6
X21 a_2374_n536# a_2254_n562# a_2196_n536# w_n4412_n762# sky130_fd_pr__pfet_g5v0d10v5 ad=0.725 pd=5.29 as=0.725 ps=5.29 w=5 l=0.6
X22 a_n2432_n536# a_n2552_n562# a_n2610_n536# w_n4412_n762# sky130_fd_pr__pfet_g5v0d10v5 ad=0.725 pd=5.29 as=0.725 ps=5.29 w=5 l=0.6
X23 a_1128_n536# a_1008_n562# a_950_n536# w_n4412_n762# sky130_fd_pr__pfet_g5v0d10v5 ad=0.725 pd=5.29 as=0.725 ps=5.29 w=5 l=0.6
X24 a_n1186_n536# a_n1306_n562# a_n1364_n536# w_n4412_n762# sky130_fd_pr__pfet_g5v0d10v5 ad=0.725 pd=5.29 as=0.725 ps=5.29 w=5 l=0.6
X25 a_772_n536# a_652_n562# a_594_n536# w_n4412_n762# sky130_fd_pr__pfet_g5v0d10v5 ad=0.725 pd=5.29 as=0.725 ps=5.29 w=5 l=0.6
X26 a_3442_n536# a_3322_n562# a_3264_n536# w_n4412_n762# sky130_fd_pr__pfet_g5v0d10v5 ad=0.725 pd=5.29 as=0.725 ps=5.29 w=5 l=0.6
X27 a_1662_n536# a_1542_n562# a_1484_n536# w_n4412_n762# sky130_fd_pr__pfet_g5v0d10v5 ad=0.725 pd=5.29 as=0.725 ps=5.29 w=5 l=0.6
X28 a_n2966_n536# a_n3086_n562# a_n3144_n536# w_n4412_n762# sky130_fd_pr__pfet_g5v0d10v5 ad=0.725 pd=5.29 as=0.725 ps=5.29 w=5 l=0.6
X29 a_2730_n536# a_2610_n562# a_2552_n536# w_n4412_n762# sky130_fd_pr__pfet_g5v0d10v5 ad=0.725 pd=5.29 as=0.725 ps=5.29 w=5 l=0.6
X30 a_n4034_n536# a_n4154_n562# a_n4212_n536# w_n4412_n762# sky130_fd_pr__pfet_g5v0d10v5 ad=0.725 pd=5.29 as=1.45 ps=10.58 w=5 l=0.6
X31 a_n118_n536# a_n238_n562# a_n296_n536# w_n4412_n762# sky130_fd_pr__pfet_g5v0d10v5 ad=0.725 pd=5.29 as=0.725 ps=5.29 w=5 l=0.6
X32 a_3798_n536# a_3678_n562# a_3620_n536# w_n4412_n762# sky130_fd_pr__pfet_g5v0d10v5 ad=0.725 pd=5.29 as=0.725 ps=5.29 w=5 l=0.6
X33 a_n3856_n536# a_n3976_n562# a_n4034_n536# w_n4412_n762# sky130_fd_pr__pfet_g5v0d10v5 ad=0.725 pd=5.29 as=0.725 ps=5.29 w=5 l=0.6
X34 a_n2610_n536# a_n2730_n562# a_n2788_n536# w_n4412_n762# sky130_fd_pr__pfet_g5v0d10v5 ad=0.725 pd=5.29 as=0.725 ps=5.29 w=5 l=0.6
X35 a_2196_n536# a_2076_n562# a_2018_n536# w_n4412_n762# sky130_fd_pr__pfet_g5v0d10v5 ad=0.725 pd=5.29 as=0.725 ps=5.29 w=5 l=0.6
X36 a_n2254_n536# a_n2374_n562# a_n2432_n536# w_n4412_n762# sky130_fd_pr__pfet_g5v0d10v5 ad=0.725 pd=5.29 as=0.725 ps=5.29 w=5 l=0.6
X37 a_n652_n536# a_n772_n562# a_n830_n536# w_n4412_n762# sky130_fd_pr__pfet_g5v0d10v5 ad=0.725 pd=5.29 as=0.725 ps=5.29 w=5 l=0.6
X38 a_2018_n536# a_1898_n562# a_1840_n536# w_n4412_n762# sky130_fd_pr__pfet_g5v0d10v5 ad=0.725 pd=5.29 as=0.725 ps=5.29 w=5 l=0.6
X39 a_n1008_n536# a_n1128_n562# a_n1186_n536# w_n4412_n762# sky130_fd_pr__pfet_g5v0d10v5 ad=0.725 pd=5.29 as=0.725 ps=5.29 w=5 l=0.6
X40 a_594_n536# a_474_n562# a_416_n536# w_n4412_n762# sky130_fd_pr__pfet_g5v0d10v5 ad=0.725 pd=5.29 as=0.725 ps=5.29 w=5 l=0.6
X41 a_3264_n536# a_3144_n562# a_3086_n536# w_n4412_n762# sky130_fd_pr__pfet_g5v0d10v5 ad=0.725 pd=5.29 as=0.725 ps=5.29 w=5 l=0.6
X42 a_n3322_n536# a_n3442_n562# a_n3500_n536# w_n4412_n762# sky130_fd_pr__pfet_g5v0d10v5 ad=0.725 pd=5.29 as=0.725 ps=5.29 w=5 l=0.6
X43 a_60_n536# a_n60_n562# a_n118_n536# w_n4412_n762# sky130_fd_pr__pfet_g5v0d10v5 ad=0.725 pd=5.29 as=0.725 ps=5.29 w=5 l=0.6
X44 a_3086_n536# a_2966_n562# a_2908_n536# w_n4412_n762# sky130_fd_pr__pfet_g5v0d10v5 ad=0.725 pd=5.29 as=0.725 ps=5.29 w=5 l=0.6
X45 a_1484_n536# a_1364_n562# a_1306_n536# w_n4412_n762# sky130_fd_pr__pfet_g5v0d10v5 ad=0.725 pd=5.29 as=0.725 ps=5.29 w=5 l=0.6
X46 a_n1542_n536# a_n1662_n562# a_n1720_n536# w_n4412_n762# sky130_fd_pr__pfet_g5v0d10v5 ad=0.725 pd=5.29 as=0.725 ps=5.29 w=5 l=0.6
.ends

.subckt sky130_fd_pr__pfet_g5v0d10v5_WY4TLZ a_n919_n536# a_207_n562# a_n1217_n562#
+ w_n1653_n762# a_n385_n536# a_1039_n536# a_n861_n562# a_n1453_n536# a_505_n536# a_1275_n562#
+ a_29_n562# a_n1039_n562# a_n683_n562# a_n207_n536# a_741_n562# a_327_n536# a_n1275_n536#
+ a_1097_n562# a_n505_n562# a_n29_n536# a_n1097_n536# a_563_n562# a_149_n536# a_1395_n536#
+ a_n741_n536# a_919_n562# a_861_n536# a_n327_n562# a_385_n562# a_n1395_n562# a_1217_n536#
+ a_n563_n536# a_683_n536# a_n149_n562#
X0 a_n207_n536# a_n327_n562# a_n385_n536# w_n1653_n762# sky130_fd_pr__pfet_g5v0d10v5 ad=0.725 pd=5.29 as=0.725 ps=5.29 w=5 l=0.6
X1 a_1217_n536# a_1097_n562# a_1039_n536# w_n1653_n762# sky130_fd_pr__pfet_g5v0d10v5 ad=0.725 pd=5.29 as=0.725 ps=5.29 w=5 l=0.6
X2 a_n1275_n536# a_n1395_n562# a_n1453_n536# w_n1653_n762# sky130_fd_pr__pfet_g5v0d10v5 ad=0.725 pd=5.29 as=1.45 ps=10.58 w=5 l=0.6
X3 a_n741_n536# a_n861_n562# a_n919_n536# w_n1653_n762# sky130_fd_pr__pfet_g5v0d10v5 ad=0.725 pd=5.29 as=0.725 ps=5.29 w=5 l=0.6
X4 a_n1097_n536# a_n1217_n562# a_n1275_n536# w_n1653_n762# sky130_fd_pr__pfet_g5v0d10v5 ad=0.725 pd=5.29 as=0.725 ps=5.29 w=5 l=0.6
X5 a_683_n536# a_563_n562# a_505_n536# w_n1653_n762# sky130_fd_pr__pfet_g5v0d10v5 ad=0.725 pd=5.29 as=0.725 ps=5.29 w=5 l=0.6
X6 a_1039_n536# a_919_n562# a_861_n536# w_n1653_n762# sky130_fd_pr__pfet_g5v0d10v5 ad=0.725 pd=5.29 as=0.725 ps=5.29 w=5 l=0.6
X7 a_n29_n536# a_n149_n562# a_n207_n536# w_n1653_n762# sky130_fd_pr__pfet_g5v0d10v5 ad=0.725 pd=5.29 as=0.725 ps=5.29 w=5 l=0.6
X8 a_n563_n536# a_n683_n562# a_n741_n536# w_n1653_n762# sky130_fd_pr__pfet_g5v0d10v5 ad=0.725 pd=5.29 as=0.725 ps=5.29 w=5 l=0.6
X9 a_n919_n536# a_n1039_n562# a_n1097_n536# w_n1653_n762# sky130_fd_pr__pfet_g5v0d10v5 ad=0.725 pd=5.29 as=0.725 ps=5.29 w=5 l=0.6
X10 a_505_n536# a_385_n562# a_327_n536# w_n1653_n762# sky130_fd_pr__pfet_g5v0d10v5 ad=0.725 pd=5.29 as=0.725 ps=5.29 w=5 l=0.6
X11 a_n385_n536# a_n505_n562# a_n563_n536# w_n1653_n762# sky130_fd_pr__pfet_g5v0d10v5 ad=0.725 pd=5.29 as=0.725 ps=5.29 w=5 l=0.6
X12 a_1395_n536# a_1275_n562# a_1217_n536# w_n1653_n762# sky130_fd_pr__pfet_g5v0d10v5 ad=1.45 pd=10.58 as=0.725 ps=5.29 w=5 l=0.6
X13 a_327_n536# a_207_n562# a_149_n536# w_n1653_n762# sky130_fd_pr__pfet_g5v0d10v5 ad=0.725 pd=5.29 as=0.725 ps=5.29 w=5 l=0.6
X14 a_149_n536# a_29_n562# a_n29_n536# w_n1653_n762# sky130_fd_pr__pfet_g5v0d10v5 ad=0.725 pd=5.29 as=0.725 ps=5.29 w=5 l=0.6
X15 a_861_n536# a_741_n562# a_683_n536# w_n1653_n762# sky130_fd_pr__pfet_g5v0d10v5 ad=0.725 pd=5.29 as=0.725 ps=5.29 w=5 l=0.6
.ends

.subckt sky130_fd_sc_hvl__inv_1 A VGND VNB VPB VPWR Y
X0 Y A VPWR VPB sky130_fd_pr__pfet_g5v0d10v5 ad=0.4275 pd=3.57 as=0.4275 ps=3.57 w=1.5 l=0.5
X1 Y A VGND VNB sky130_fd_pr__nfet_g5v0d10v5 ad=0.21375 pd=2.07 as=0.21375 ps=2.07 w=0.75 l=0.5
.ends

.subckt sky130_fd_pr__res_xhigh_po_1p41_9VZRJ2 a_n7134_n3916# a_n8646_3484# a_7230_3484#
+ a_n5244_3484# a_8364_n3916# a_12144_3484# a_n7512_n3916# a_6096_n3916# a_n9024_3484#
+ a_n5244_n3916# a_n12048_n3916# a_8742_n3916# a_6474_n3916# a_n330_n3916# a_n708_n3916#
+ a_n12426_n3916# a_48_n3916# a_n5622_n3916# a_n7890_3484# a_7986_3484# a_n12804_3484#
+ a_4584_3484# a_n2598_3484# a_n3354_n3916# a_n10158_n3916# a_n13182_3484# a_1182_3484#
+ a_6852_n3916# a_n12804_n3916# a_11388_n3916# a_4584_n3916# a_n1086_n3916# a_8364_3484#
+ a_n10536_n3916# a_n3732_n3916# a_n6378_3484# a_11766_n3916# a_4962_n3916# a_n1464_n3916#
+ a_n10914_n3916# a_2694_n3916# a_n1842_n3916# a_n9780_n3916# a_n1842_3484# a_1938_3484#
+ a_48_3484# a_n10536_3484# a_n5622_3484# a_5718_3484# a_9498_3484# a_n2220_3484#
+ a_n7890_n3916# a_2316_3484# a_6096_3484# a_12522_3484# a_9120_n3916# a_n9402_3484#
+ a_n6000_3484# a_n6000_n3916# a_7230_n3916# a_7608_n3916# a_426_n3916# a_4962_3484#
+ a_1560_3484# a_n2976_3484# a_804_n3916# a_n4110_n3916# a_8742_3484# a_n6756_3484#
+ a_5340_3484# a_12144_n3916# a_n3354_3484# a_5340_n3916# a_5718_n3916# a_n13312_n4046#
+ a_n12048_3484# a_10254_3484# a_3072_n3916# a_9120_3484# a_12522_n3916# a_n2220_n3916#
+ a_n7134_3484# a_426_3484# a_10254_n3916# a_3450_n3916# a_3828_n3916# a_12900_n3916#
+ a_n708_3484# a_1182_n3916# a_n8268_n3916# a_10632_n3916# a_n10914_3484# a_2694_3484#
+ a_n11292_3484# a_9498_n3916# a_n8646_n3916# a_n9780_3484# a_1560_n3916# a_1938_n3916#
+ a_9876_3484# a_6474_3484# a_12900_3484# a_n4488_3484# a_3072_3484# a_9876_n3916#
+ a_n1086_3484# a_n6378_n3916# a_11388_3484# a_n8268_3484# a_n13182_n3916# a_n6756_n3916#
+ a_n330_3484# a_7986_n3916# a_n4488_n3916# a_n11292_n3916# a_n4866_n3916# a_n2598_n3916#
+ a_n3732_3484# a_3828_3484# a_n11670_n3916# a_n12426_3484# a_10632_3484# a_n2976_n3916#
+ a_n7512_3484# a_7608_3484# a_804_3484# a_n4110_3484# a_4206_3484# a_4206_n3916#
+ a_11010_3484# a_11010_n3916# a_n11670_3484# a_2316_n3916# a_n9024_n3916# a_6852_3484#
+ a_3450_3484# a_n4866_3484# a_n9402_n3916# a_n1464_3484# a_n10158_3484# a_11766_3484#
X0 a_n9024_3484# a_n9024_n3916# a_n13312_n4046# sky130_fd_pr__res_xhigh_po_1p41 l=35
X1 a_9876_3484# a_9876_n3916# a_n13312_n4046# sky130_fd_pr__res_xhigh_po_1p41 l=35
X2 a_n11670_3484# a_n11670_n3916# a_n13312_n4046# sky130_fd_pr__res_xhigh_po_1p41 l=35
X3 a_n330_3484# a_n330_n3916# a_n13312_n4046# sky130_fd_pr__res_xhigh_po_1p41 l=35
X4 a_3072_3484# a_3072_n3916# a_n13312_n4046# sky130_fd_pr__res_xhigh_po_1p41 l=35
X5 a_5718_3484# a_5718_n3916# a_n13312_n4046# sky130_fd_pr__res_xhigh_po_1p41 l=35
X6 a_6474_3484# a_6474_n3916# a_n13312_n4046# sky130_fd_pr__res_xhigh_po_1p41 l=35
X7 a_8742_3484# a_8742_n3916# a_n13312_n4046# sky130_fd_pr__res_xhigh_po_1p41 l=35
X8 a_n11292_3484# a_n11292_n3916# a_n13312_n4046# sky130_fd_pr__res_xhigh_po_1p41 l=35
X9 a_n10536_3484# a_n10536_n3916# a_n13312_n4046# sky130_fd_pr__res_xhigh_po_1p41 l=35
X10 a_n7890_3484# a_n7890_n3916# a_n13312_n4046# sky130_fd_pr__res_xhigh_po_1p41 l=35
X11 a_2316_3484# a_2316_n3916# a_n13312_n4046# sky130_fd_pr__res_xhigh_po_1p41 l=35
X12 a_5340_3484# a_5340_n3916# a_n13312_n4046# sky130_fd_pr__res_xhigh_po_1p41 l=35
X13 a_n12804_3484# a_n12804_n3916# a_n13312_n4046# sky130_fd_pr__res_xhigh_po_1p41 l=35
X14 a_n6756_3484# a_n6756_n3916# a_n13312_n4046# sky130_fd_pr__res_xhigh_po_1p41 l=35
X15 a_n4488_3484# a_n4488_n3916# a_n13312_n4046# sky130_fd_pr__res_xhigh_po_1p41 l=35
X16 a_n1086_3484# a_n1086_n3916# a_n13312_n4046# sky130_fd_pr__res_xhigh_po_1p41 l=35
X17 a_12144_3484# a_12144_n3916# a_n13312_n4046# sky130_fd_pr__res_xhigh_po_1p41 l=35
X18 a_n5622_3484# a_n5622_n3916# a_n13312_n4046# sky130_fd_pr__res_xhigh_po_1p41 l=35
X19 a_n3354_3484# a_n3354_n3916# a_n13312_n4046# sky130_fd_pr__res_xhigh_po_1p41 l=35
X20 a_11010_3484# a_11010_n3916# a_n13312_n4046# sky130_fd_pr__res_xhigh_po_1p41 l=35
X21 a_6096_3484# a_6096_n3916# a_n13312_n4046# sky130_fd_pr__res_xhigh_po_1p41 l=35
X22 a_9498_3484# a_9498_n3916# a_n13312_n4046# sky130_fd_pr__res_xhigh_po_1p41 l=35
X23 a_7608_3484# a_7608_n3916# a_n13312_n4046# sky130_fd_pr__res_xhigh_po_1p41 l=35
X24 a_8364_3484# a_8364_n3916# a_n13312_n4046# sky130_fd_pr__res_xhigh_po_1p41 l=35
X25 a_n13182_3484# a_n13182_n3916# a_n13312_n4046# sky130_fd_pr__res_xhigh_po_1p41 l=35
X26 a_n10158_3484# a_n10158_n3916# a_n13312_n4046# sky130_fd_pr__res_xhigh_po_1p41 l=35
X27 a_n9780_3484# a_n9780_n3916# a_n13312_n4046# sky130_fd_pr__res_xhigh_po_1p41 l=35
X28 a_4206_3484# a_4206_n3916# a_n13312_n4046# sky130_fd_pr__res_xhigh_po_1p41 l=35
X29 a_7230_3484# a_7230_n3916# a_n13312_n4046# sky130_fd_pr__res_xhigh_po_1p41 l=35
X30 a_n12426_3484# a_n12426_n3916# a_n13312_n4046# sky130_fd_pr__res_xhigh_po_1p41 l=35
X31 a_n8646_3484# a_n8646_n3916# a_n13312_n4046# sky130_fd_pr__res_xhigh_po_1p41 l=35
X32 a_n6378_3484# a_n6378_n3916# a_n13312_n4046# sky130_fd_pr__res_xhigh_po_1p41 l=35
X33 a_n7512_3484# a_n7512_n3916# a_n13312_n4046# sky130_fd_pr__res_xhigh_po_1p41 l=35
X34 a_n5244_3484# a_n5244_n3916# a_n13312_n4046# sky130_fd_pr__res_xhigh_po_1p41 l=35
X35 a_n2220_3484# a_n2220_n3916# a_n13312_n4046# sky130_fd_pr__res_xhigh_po_1p41 l=35
X36 a_1938_3484# a_1938_n3916# a_n13312_n4046# sky130_fd_pr__res_xhigh_po_1p41 l=35
X37 a_2694_3484# a_2694_n3916# a_n13312_n4046# sky130_fd_pr__res_xhigh_po_1p41 l=35
X38 a_4962_3484# a_4962_n3916# a_n13312_n4046# sky130_fd_pr__res_xhigh_po_1p41 l=35
X39 a_1560_3484# a_1560_n3916# a_n13312_n4046# sky130_fd_pr__res_xhigh_po_1p41 l=35
X40 a_11766_3484# a_11766_n3916# a_n13312_n4046# sky130_fd_pr__res_xhigh_po_1p41 l=35
X41 a_n2976_3484# a_n2976_n3916# a_n13312_n4046# sky130_fd_pr__res_xhigh_po_1p41 l=35
X42 a_48_3484# a_48_n3916# a_n13312_n4046# sky130_fd_pr__res_xhigh_po_1p41 l=35
X43 a_10632_3484# a_10632_n3916# a_n13312_n4046# sky130_fd_pr__res_xhigh_po_1p41 l=35
X44 a_12900_3484# a_12900_n3916# a_n13312_n4046# sky130_fd_pr__res_xhigh_po_1p41 l=35
X45 a_n1842_3484# a_n1842_n3916# a_n13312_n4046# sky130_fd_pr__res_xhigh_po_1p41 l=35