*SPEF "ieee 1481-1999"
*DESIGN "por_dig"
*DATE "21:05:57 Friday April 12, 2024"
*VENDOR "The OpenROAD Project"
*PROGRAM "OpenROAD"
*VERSION "0889970d1790a2617e69f253221b8bd7626e51dc"
*DESIGN_FLOW "NAME_SCOPE LOCAL" "PIN_CAP NONE"
*DIVIDER /
*DELIMITER :
*BUS_DELIMITER []
*T_UNIT 1 NS
*C_UNIT 1 PF
*R_UNIT 1 OHM
*L_UNIT 1 HENRY

*NAME_MAP
*3 force_dis_rc_osc
*4 force_ena_rc_osc
*5 force_pdn
*6 force_pdnb
*7 force_short_oneshot
*8 osc_ck
*9 osc_ena
*10 otrip[0]
*11 otrip[1]
*12 otrip[2]
*13 otrip_decoded[0]
*14 otrip_decoded[1]
*15 otrip_decoded[2]
*16 otrip_decoded[3]
*17 otrip_decoded[4]
*18 otrip_decoded[5]
*19 otrip_decoded[6]
*20 otrip_decoded[7]
*21 por_timed_out
*22 por_unbuf
*23 pwup_filt
*24 startup_timed_out
*25 _000_
*26 _001_
*27 _002_
*28 _003_
*29 _004_
*30 _005_
*31 _006_
*32 _007_
*33 _008_
*34 _009_
*35 _010_
*36 _011_
*37 _012_
*38 _013_
*39 _014_
*40 _015_
*41 _016_
*42 _017_
*43 _018_
*44 _019_
*45 _020_
*46 _021_
*47 _022_
*48 _023_
*49 _024_
*50 _025_
*51 _026_
*52 _027_
*53 _028_
*54 _029_
*55 _030_
*56 _031_
*57 _032_
*58 _033_
*59 _034_
*60 _035_
*61 _036_
*62 _037_
*63 _038_
*64 _039_
*65 _040_
*66 _041_
*67 _042_
*68 _043_
*69 _044_
*70 _045_
*71 _046_
*72 _047_
*73 _048_
*74 _049_
*75 _050_
*76 _051_
*77 _052_
*78 _053_
*79 clknet_0_osc_ck
*80 clknet_1_0__leaf_osc_ck
*81 clknet_1_1__leaf_osc_ck
*82 cnt_por\[0\]
*83 cnt_por\[10\]
*84 cnt_por\[1\]
*85 cnt_por\[2\]
*86 cnt_por\[3\]
*87 cnt_por\[4\]
*88 cnt_por\[5\]
*89 cnt_por\[6\]
*90 cnt_por\[7\]
*91 cnt_por\[8\]
*92 cnt_por\[9\]
*93 cnt_rsb
*94 cnt_rsb_stg1
*95 cnt_st\[0\]
*96 cnt_st\[1\]
*97 cnt_st\[2\]
*98 cnt_st\[3\]
*99 cnt_st\[4\]
*100 net1
*101 net10
*102 net11
*103 net12
*104 net13
*105 net14
*106 net15
*107 net16
*108 net17
*109 net18
*110 net19
*111 net2
*112 net20
*113 net21
*114 net22
*115 net23
*116 net24
*117 net25
*118 net26
*119 net27
*120 net28
*121 net29
*122 net3
*123 net30
*124 net31
*125 net32
*126 net33
*127 net34
*128 net4
*129 net5
*130 net6
*131 net7
*132 net8
*133 net9
*134 FILLER_0_0_20
*135 FILLER_0_0_3
*136 FILLER_0_0_33
*137 FILLER_0_0_48
*138 FILLER_0_0_57
*139 FILLER_0_0_63
*140 FILLER_0_0_70
*141 FILLER_0_0_77
*142 FILLER_0_0_85
*143 FILLER_0_0_9
*144 FILLER_0_0_97
*145 FILLER_0_10_42
*146 FILLER_0_10_83
*147 FILLER_0_11_10
*148 FILLER_0_11_32
*149 FILLER_0_11_47
*150 FILLER_0_11_55
*151 FILLER_0_11_6
*152 FILLER_0_11_61
*153 FILLER_0_11_94
*154 FILLER_0_12_15
*155 FILLER_0_12_27
*156 FILLER_0_12_29
*157 FILLER_0_12_3
*158 FILLER_0_12_33
*159 FILLER_0_12_39
*160 FILLER_0_12_68
*161 FILLER_0_12_80
*162 FILLER_0_12_93
*163 FILLER_0_12_97
*164 FILLER_0_13_15
*165 FILLER_0_13_3
*166 FILLER_0_13_38
*167 FILLER_0_13_46
*168 FILLER_0_13_78
*169 FILLER_0_13_90
*170 FILLER_0_14_15
*171 FILLER_0_14_29
*172 FILLER_0_14_3
*173 FILLER_0_14_71
*174 FILLER_0_14_83
*175 FILLER_0_14_85
*176 FILLER_0_14_97
*177 FILLER_0_15_15
*178 FILLER_0_15_3
*179 FILLER_0_15_45
*180 FILLER_0_15_54
*181 FILLER_0_15_61
*182 FILLER_0_15_73
*183 FILLER_0_15_85
*184 FILLER_0_15_97
*185 FILLER_0_16_15
*186 FILLER_0_16_27
*187 FILLER_0_16_29
*188 FILLER_0_16_3
*189 FILLER_0_16_36
*190 FILLER_0_16_48
*191 FILLER_0_16_55
*192 FILLER_0_16_61
*193 FILLER_0_16_73
*194 FILLER_0_16_81
*195 FILLER_0_16_85
*196 FILLER_0_16_97
*197 FILLER_0_1_10
*198 FILLER_0_1_16
*199 FILLER_0_1_21
*200 FILLER_0_1_28
*201 FILLER_0_1_41
*202 FILLER_0_1_6
*203 FILLER_0_1_64
*204 FILLER_0_1_76
*205 FILLER_0_1_88
*206 FILLER_0_1_96
*207 FILLER_0_2_19
*208 FILLER_0_2_27
*209 FILLER_0_2_29
*210 FILLER_0_2_37
*211 FILLER_0_2_46
*212 FILLER_0_2_57
*213 FILLER_0_2_69
*214 FILLER_0_2_7
*215 FILLER_0_2_81
*216 FILLER_0_2_85
*217 FILLER_0_2_97
*218 FILLER_0_3_10
*219 FILLER_0_3_22
*220 FILLER_0_3_52
*221 FILLER_0_3_61
*222 FILLER_0_3_73
*223 FILLER_0_3_85
*224 FILLER_0_3_97
*225 FILLER_0_4_13
*226 FILLER_0_4_25
*227 FILLER_0_4_29
*228 FILLER_0_4_3
*229 FILLER_0_4_33
*230 FILLER_0_4_62
*231 FILLER_0_4_85
*232 FILLER_0_4_97
*233 FILLER_0_5_3
*234 FILLER_0_5_52
*235 FILLER_0_5_57
*236 FILLER_0_5_84
*237 FILLER_0_5_90
*238 FILLER_0_5_96
*239 FILLER_0_6_23
*240 FILLER_0_6_97
*241 FILLER_0_7_23
*242 FILLER_0_7_55
*243 FILLER_0_7_65
*244 FILLER_0_7_77
*245 FILLER_0_8_27
*246 FILLER_0_8_66
*247 FILLER_0_8_78
*248 FILLER_0_8_96
*249 FILLER_0_9_13
*250 FILLER_0_9_3
*251 FILLER_0_9_55
*252 FILLER_0_9_61
*253 FILLER_0_9_83
*254 FILLER_0_9_96
*255 PHY_EDGE_ROW_0_Left_17
*256 PHY_EDGE_ROW_0_Right_0
*257 PHY_EDGE_ROW_10_Left_27
*258 PHY_EDGE_ROW_10_Right_10
*259 PHY_EDGE_ROW_11_Left_28
*260 PHY_EDGE_ROW_11_Right_11
*261 PHY_EDGE_ROW_12_Left_29
*262 PHY_EDGE_ROW_12_Right_12
*263 PHY_EDGE_ROW_13_Left_30
*264 PHY_EDGE_ROW_13_Right_13
*265 PHY_EDGE_ROW_14_Left_31
*266 PHY_EDGE_ROW_14_Right_14
*267 PHY_EDGE_ROW_15_Left_32
*268 PHY_EDGE_ROW_15_Right_15
*269 PHY_EDGE_ROW_16_Left_33
*270 PHY_EDGE_ROW_16_Right_16
*271 PHY_EDGE_ROW_1_Left_18
*272 PHY_EDGE_ROW_1_Right_1
*273 PHY_EDGE_ROW_2_Left_19
*274 PHY_EDGE_ROW_2_Right_2
*275 PHY_EDGE_ROW_3_Left_20
*276 PHY_EDGE_ROW_3_Right_3
*277 PHY_EDGE_ROW_4_Left_21
*278 PHY_EDGE_ROW_4_Right_4
*279 PHY_EDGE_ROW_5_Left_22
*280 PHY_EDGE_ROW_5_Right_5
*281 PHY_EDGE_ROW_6_Left_23
*282 PHY_EDGE_ROW_6_Right_6
*283 PHY_EDGE_ROW_7_Left_24
*284 PHY_EDGE_ROW_7_Right_7
*285 PHY_EDGE_ROW_8_Left_25
*286 PHY_EDGE_ROW_8_Right_8
*287 PHY_EDGE_ROW_9_Left_26
*288 PHY_EDGE_ROW_9_Right_9
*289 TAP_TAPCELL_ROW_0_34
*290 TAP_TAPCELL_ROW_0_35
*291 TAP_TAPCELL_ROW_0_36
*292 TAP_TAPCELL_ROW_10_50
*293 TAP_TAPCELL_ROW_10_51
*294 TAP_TAPCELL_ROW_11_52
*295 TAP_TAPCELL_ROW_12_53
*296 TAP_TAPCELL_ROW_12_54
*297 TAP_TAPCELL_ROW_13_55
*298 TAP_TAPCELL_ROW_14_56
*299 TAP_TAPCELL_ROW_14_57
*300 TAP_TAPCELL_ROW_15_58
*301 TAP_TAPCELL_ROW_16_59
*302 TAP_TAPCELL_ROW_16_60
*303 TAP_TAPCELL_ROW_16_61
*304 TAP_TAPCELL_ROW_1_37
*305 TAP_TAPCELL_ROW_2_38
*306 TAP_TAPCELL_ROW_2_39
*307 TAP_TAPCELL_ROW_3_40
*308 TAP_TAPCELL_ROW_4_41
*309 TAP_TAPCELL_ROW_4_42
*310 TAP_TAPCELL_ROW_5_43
*311 TAP_TAPCELL_ROW_6_44
*312 TAP_TAPCELL_ROW_6_45
*313 TAP_TAPCELL_ROW_7_46
*314 TAP_TAPCELL_ROW_8_47
*315 TAP_TAPCELL_ROW_8_48
*316 TAP_TAPCELL_ROW_9_49
*317 _054_
*318 _055_
*319 _056_
*320 _057_
*321 _058_
*322 _059_
*323 _060_
*324 _061_
*325 _062_
*326 _063_
*327 _064_
*328 _065_
*329 _066_
*330 _067_
*331 _068_
*332 _069_
*333 _070_
*334 _071_
*335 _072_
*336 _073_
*337 _074_
*338 _075_
*339 _076_
*340 _077_
*341 _078_
*342 _079_
*343 _080_
*344 _081_
*345 _082_
*346 _083_
*347 _084_
*348 _085_
*349 _086_
*350 _087_
*351 _088_
*352 _089_
*353 _090_
*354 _091_
*355 _092_
*356 _093_
*357 _094_
*358 _095_
*359 _096_
*360 _097_
*361 _098_
*362 _099_
*363 _100_
*364 _101_
*365 _102_
*366 _103_
*367 _104_
*368 _105_
*369 _106_
*370 _107_
*371 _108_
*372 _109_
*373 _110_
*374 _111_
*375 _112_
*376 _113_
*377 _114_
*378 _115_
*379 _116_
*380 _117_
*381 _118_
*382 _119_
*383 _120_
*384 _121_
*385 _122_
*386 _123_
*387 _124_
*388 _125_
*389 _126_
*390 _127_
*391 _128_
*392 _129_
*393 _130_
*394 _131_
*395 _132_
*396 _133_
*397 _134_
*398 _135_
*399 _136_
*400 _137_
*401 _137__26
*402 _138_
*403 clkbuf_0_osc_ck
*404 clkbuf_1_0__f_osc_ck
*405 clkbuf_1_1__f_osc_ck
*406 fanout22
*407 fanout23
*408 fanout24
*409 fanout25
*410 hold1
*411 hold2
*412 hold3
*413 hold4
*414 hold5
*415 hold6
*416 hold7
*417 hold8
*418 input1
*419 input2
*420 input3
*421 input4
*422 input5
*423 input6
*424 input7
*425 input8
*426 output10
*427 output11
*428 output12
*429 output13
*430 output14
*431 output15
*432 output16
*433 output17
*434 output18
*435 output19
*436 output20
*437 output21
*438 output9

*PORTS
force_dis_rc_osc I
force_ena_rc_osc I
force_pdn I
force_pdnb O
force_short_oneshot I
osc_ck I
osc_ena O
otrip[0] I
otrip[1] I
otrip[2] I
otrip_decoded[0] O
otrip_decoded[1] O
otrip_decoded[2] O
otrip_decoded[3] O
otrip_decoded[4] O
otrip_decoded[5] O
otrip_decoded[6] O
otrip_decoded[7] O
por_timed_out O
por_unbuf O
pwup_filt I
startup_timed_out O

*D_NET *3 0.00166977
*CONN
*P force_dis_rc_osc I
*I *418:A I *D sky130_fd_sc_hd__clkbuf_1
*CAP
1 force_dis_rc_osc 0.000594705
2 *418:A 0.000594705
3 *418:A por_timed_out 0.000126939
4 *418:A *337:A 0.000134717
5 *418:A *411:A 0.000177698
6 *418:A *425:A 4.10044e-05
*RES
1 force_dis_rc_osc *418:A 27.7341 
*END

*D_NET *4 0.000882746
*CONN
*P force_ena_rc_osc I
*I *419:A I *D sky130_fd_sc_hd__clkbuf_1
*CAP
1 force_ena_rc_osc 0.000352218
2 *419:A 0.000352218
3 *419:A force_pdnb 8.28611e-05
4 *419:A osc_ena 9.54485e-05
*RES
1 force_ena_rc_osc *419:A 18.5553 
*END

*D_NET *5 0.000575907
*CONN
*P force_pdn I
*I *420:A I *D sky130_fd_sc_hd__clkbuf_1
*CAP
1 force_pdn 0.000272374
2 *420:A 0.000272374
3 *420:A force_pdnb 3.11591e-05
*RES
1 force_pdn *420:A 19.0336 
*END

*D_NET *6 0.000753413
*CONN
*P force_pdnb O
*I *438:X O *D sky130_fd_sc_hd__buf_2
*CAP
1 force_pdnb 0.000319697
2 *438:X 0.000319697
3 force_pdnb *438:A 0
4 *419:A force_pdnb 8.28611e-05
5 *420:A force_pdnb 3.11591e-05
*RES
1 *438:X force_pdnb 20.0405 
*END

*D_NET *7 0.000860453
*CONN
*P force_short_oneshot I
*I *421:A I *D sky130_fd_sc_hd__buf_2
*CAP
1 force_short_oneshot 0.000409081
2 *421:A 0.000409081
3 *421:A startup_timed_out 0
4 *421:A *348:B1 0
5 *421:A *437:A 4.22908e-05
*RES
1 force_short_oneshot *421:A 22.1394 
*END

*D_NET *8 0.00453617
*CONN
*P osc_ck I
*I *403:A I *D sky130_fd_sc_hd__clkbuf_16
*CAP
1 osc_ck 0.00182117
2 *403:A 0.00182117
3 *403:A *359:C 0.000275495
4 *403:A *370:A3 7.6644e-05
5 *403:A *370:B1 0.000170661
6 *403:A *371:B1 0
7 *403:A *58:14 0
8 *403:A *87:12 0.00019384
9 *403:A *87:27 5.52302e-05
10 *403:A *89:49 5.22755e-05
11 *403:A *116:14 6.96796e-05
12 *403:A *128:92 0
*RES
1 osc_ck *403:A 31.8958 
*END

*D_NET *9 0.00088131
*CONN
*P osc_ena O
*I *426:X O *D sky130_fd_sc_hd__buf_2
*CAP
1 osc_ena 0.000320435
2 *426:X 0.000320435
3 osc_ena *338:A_N 0
4 osc_ena *338:B 2.06112e-05
5 osc_ena *425:A 4.42999e-05
6 osc_ena *426:A 8.00806e-05
7 *419:A osc_ena 9.54485e-05
*RES
1 *426:X osc_ena 20.6235 
*END

*D_NET *10 0.000813598
*CONN
*P otrip[0] I
*I *422:A I *D sky130_fd_sc_hd__dlymetal6s2s_1
*CAP
1 otrip[0] 0.000406799
2 *422:A 0.000406799
3 *422:A otrip_decoded[1] 0
*RES
1 otrip[0] *422:A 21.9607 
*END

*D_NET *11 0.00114931
*CONN
*P otrip[1] I
*I *423:A I *D sky130_fd_sc_hd__dlymetal6s2s_1
*CAP
1 otrip[1] 0.00054549
2 *423:A 0.00054549
3 *423:A otrip_decoded[2] 0
4 *423:A *424:A 0
5 *423:A *429:A 0
6 *423:A *431:A 0
7 *423:A *130:36 5.83304e-05
*RES
1 otrip[1] *423:A 24.3893 
*END

*D_NET *12 0.00091433
*CONN
*P otrip[2] I
*I *424:A I *D sky130_fd_sc_hd__dlymetal6s2s_1
*CAP
1 otrip[2] 0.000347311
2 *424:A 0.000347311
3 *424:A otrip_decoded[4] 0.000216223
4 *424:A *431:A 3.4846e-06
5 *423:A *424:A 0
*RES
1 otrip[2] *424:A 21.8357 
*END

*D_NET *13 0.000950737
*CONN
*P otrip_decoded[0] O
*I *427:X O *D sky130_fd_sc_hd__buf_2
*CAP
1 otrip_decoded[0] 0.000475368
2 *427:X 0.000475368
3 otrip_decoded[0] otrip_decoded[3] 0
*RES
1 *427:X otrip_decoded[0] 22.05 
*END

*D_NET *14 0.00115234
*CONN
*P otrip_decoded[1] O
*I *428:X O *D sky130_fd_sc_hd__buf_2
*CAP
1 otrip_decoded[1] 0.00057617
2 *428:X 0.00057617
3 otrip_decoded[1] otrip_decoded[2] 0
4 otrip_decoded[1] *330:B 0
5 otrip_decoded[1] *428:A 0
6 otrip_decoded[1] *129:12 0
7 *422:A otrip_decoded[1] 0
*RES
1 *428:X otrip_decoded[1] 24.0679 
*END

*D_NET *15 0.00136368
*CONN
*P otrip_decoded[2] O
*I *429:X O *D sky130_fd_sc_hd__buf_2
*CAP
1 otrip_decoded[2] 0.000598565
2 *429:X 0.000598565
3 otrip_decoded[2] *429:A 5.62995e-05
4 otrip_decoded[2] *129:6 7.77751e-05
5 otrip_decoded[2] *131:19 3.24727e-05
6 otrip_decoded[1] otrip_decoded[2] 0
7 *423:A otrip_decoded[2] 0
*RES
1 *429:X otrip_decoded[2] 24.1036 
*END

*D_NET *16 0.000950737
*CONN
*P otrip_decoded[3] O
*I *430:X O *D sky130_fd_sc_hd__buf_2
*CAP
1 otrip_decoded[3] 0.000475368
2 *430:X 0.000475368
3 otrip_decoded[3] otrip_decoded[7] 0
4 otrip_decoded[0] otrip_decoded[3] 0
*RES
1 *430:X otrip_decoded[3] 22.05 
*END

*D_NET *17 0.00135288
*CONN
*P otrip_decoded[4] O
*I *431:X O *D sky130_fd_sc_hd__buf_2
*CAP
1 otrip_decoded[4] 0.000532132
2 *431:X 0.000532132
3 otrip_decoded[4] otrip_decoded[6] 0
4 otrip_decoded[4] *431:A 5.06983e-05
5 otrip_decoded[4] *131:19 2.1692e-05
6 *424:A otrip_decoded[4] 0.000216223
*RES
1 *431:X otrip_decoded[4] 26.2286 
*END

*D_NET *18 0.00103536
*CONN
*P otrip_decoded[5] O
*I *432:X O *D sky130_fd_sc_hd__buf_2
*CAP
1 otrip_decoded[5] 0.000446251
2 *432:X 0.000446251
3 otrip_decoded[5] otrip_decoded[6] 0
4 otrip_decoded[5] otrip_decoded[7] 0
5 otrip_decoded[5] *434:A 0.000142856
*RES
1 *432:X otrip_decoded[5] 22.05 
*END

*D_NET *19 0.00199626
*CONN
*P otrip_decoded[6] O
*I *433:X O *D sky130_fd_sc_hd__buf_2
*CAP
1 otrip_decoded[6] 0.000746583
2 *433:X 0.000746583
3 otrip_decoded[6] *329:B 3.4323e-06
4 otrip_decoded[6] *336:C 0.000238961
5 otrip_decoded[6] *427:A 1.15281e-05
6 otrip_decoded[6] *433:A 0.000113982
7 otrip_decoded[6] *129:55 8.11545e-05
8 otrip_decoded[6] *129:74 5.41797e-06
9 otrip_decoded[6] *130:47 2.6949e-05
10 otrip_decoded[6] *131:52 2.16719e-05
11 otrip_decoded[4] otrip_decoded[6] 0
12 otrip_decoded[5] otrip_decoded[6] 0
*RES
1 *433:X otrip_decoded[6] 28.4786 
*END

*D_NET *20 0.00096179
*CONN
*P otrip_decoded[7] O
*I *434:X O *D sky130_fd_sc_hd__buf_2
*CAP
1 otrip_decoded[7] 0.000466439
2 *434:X 0.000466439
3 otrip_decoded[7] *434:A 2.89114e-05
4 otrip_decoded[3] otrip_decoded[7] 0
5 otrip_decoded[5] otrip_decoded[7] 0
*RES
1 *434:X otrip_decoded[7] 22.05 
*END

*D_NET *21 0.00052116
*CONN
*P por_timed_out O
*I *435:X O *D sky130_fd_sc_hd__buf_2
*CAP
1 por_timed_out 0.000186539
2 *435:X 0.000186539
3 por_timed_out *411:A 2.11419e-05
4 *418:A por_timed_out 0.000126939
*RES
1 *435:X por_timed_out 18.1949 
*END

*D_NET *22 0.00136341
*CONN
*P por_unbuf O
*I *436:X O *D sky130_fd_sc_hd__buf_2
*CAP
1 por_unbuf 0.000594745
2 *436:X 0.000594745
3 por_unbuf *112:38 0.000173921
*RES
1 *436:X por_unbuf 24.3 
*END

*D_NET *23 0.00147134
*CONN
*P pwup_filt I
*I *425:A I *D sky130_fd_sc_hd__buf_1
*CAP
1 pwup_filt 0.000635396
2 *425:A 0.000635396
3 *425:A *337:A 0
4 *425:A *338:B 0.000115247
5 osc_ena *425:A 4.42999e-05
6 *418:A *425:A 4.10044e-05
*RES
1 pwup_filt *425:A 27.156 
*END

*D_NET *24 0.00128252
*CONN
*P startup_timed_out O
*I *437:X O *D sky130_fd_sc_hd__buf_2
*CAP
1 startup_timed_out 0.000451982
2 *437:X 0.000451982
3 startup_timed_out *340:B 6.2589e-06
4 startup_timed_out *345:A1 0.000154762
5 startup_timed_out *348:B1 0.000199698
6 startup_timed_out *113:21 1.78353e-05
7 *421:A startup_timed_out 0
*RES
1 *437:X startup_timed_out 23.1241 
*END

*D_NET *25 0.00109148
*CONN
*I *384:D I *D sky130_fd_sc_hd__dfrtp_1
*I *341:Y O *D sky130_fd_sc_hd__nand2_1
*CAP
1 *384:D 0.000396668
2 *341:Y 0.000396668
3 *384:D *319:B 0.000186669
4 *384:D *341:B 1.24368e-05
5 *384:D *95:23 9.90367e-05
*RES
1 *341:Y *384:D 26.1179 
*END

*D_NET *26 0.0017712
*CONN
*I *385:D I *D sky130_fd_sc_hd__dfrtp_1
*I *343:X O *D sky130_fd_sc_hd__a211o_1
*CAP
1 *385:D 0.000641335
2 *343:X 0.000641335
3 *385:D *386:D 0.000207102
4 *385:D *386:RESET_B 0.000281426
*RES
1 *343:X *385:D 36.8679 
*END

*D_NET *27 0.00185874
*CONN
*I *386:D I *D sky130_fd_sc_hd__dfrtp_1
*I *345:Y O *D sky130_fd_sc_hd__o21ai_1
*CAP
1 *386:D 0.000554087
2 *345:Y 0.000554087
3 *386:D *343:B1 8.25843e-06
4 *386:D *345:B1 0.000268396
5 *386:D *386:RESET_B 0.000125877
6 *386:D *97:8 0.000140933
7 *385:D *386:D 0.000207102
*RES
1 *345:Y *386:D 30.3679 
*END

*D_NET *28 0.00182686
*CONN
*I *387:D I *D sky130_fd_sc_hd__dfrtp_1
*I *349:X O *D sky130_fd_sc_hd__o21a_1
*CAP
1 *387:D 0.00068837
2 *349:X 0.00068837
3 *387:D *320:C 5.01213e-05
4 *387:D *67:12 7.83659e-05
5 *387:D *98:10 0
6 *387:D *117:24 0.000297652
7 *387:D *128:40 2.39779e-05
*RES
1 *349:X *387:D 41.3679 
*END

*D_NET *29 0.000461279
*CONN
*I *388:D I *D sky130_fd_sc_hd__dfrtp_1
*I *351:X O *D sky130_fd_sc_hd__a21bo_1
*CAP
1 *388:D 0.000187573
2 *351:X 0.000187573
3 *388:D *387:CLK 6.05161e-06
4 *388:D *399:RESET_B 0
5 *388:D *128:58 8.00806e-05
*RES
1 *351:X *388:D 30.8321 
*END

*D_NET *30 0.000681217
*CONN
*I *389:D I *D sky130_fd_sc_hd__dfrtp_4
*I *353:X O *D sky130_fd_sc_hd__mux2_1
*CAP
1 *389:D 0.000179585
2 *353:X 0.000179585
3 *389:D *81:25 0.000203604
4 *389:D *84:59 0.000100831
5 *389:D *84:72 1.76135e-05
*RES
1 *353:X *389:D 30.7071 
*END

*D_NET *31 0.000709056
*CONN
*I *390:D I *D sky130_fd_sc_hd__dfrtp_2
*I *358:Y O *D sky130_fd_sc_hd__o21ai_1
*CAP
1 *390:D 0.000192505
2 *358:Y 0.000192505
3 *390:D *358:B1 0.000295144
4 *390:D *59:12 0
5 *390:D *84:6 2.89016e-05
*RES
1 *358:Y *390:D 31.9036 
*END

*D_NET *32 0.000677362
*CONN
*I *391:D I *D sky130_fd_sc_hd__dfrtp_1
*I *361:X O *D sky130_fd_sc_hd__a21o_1
*CAP
1 *391:D 0.000244381
2 *361:X 0.000244381
3 *391:D *361:A2 0
4 *391:D *391:CLK 4.57445e-05
5 *391:D *81:40 0.000142856
*RES
1 *361:X *391:D 31.4214 
*END

*D_NET *33 0.000255327
*CONN
*I *392:D I *D sky130_fd_sc_hd__dfrtp_1
*I *364:X O *D sky130_fd_sc_hd__a21o_1
*CAP
1 *392:D 0.000100845
2 *364:X 0.000100845
3 *392:D *361:A1 5.36379e-05
*RES
1 *364:X *392:D 29.475 
*END

*D_NET *34 0.00127209
*CONN
*I *393:D I *D sky130_fd_sc_hd__dfrtp_1
*I *367:Y O *D sky130_fd_sc_hd__o21ai_1
*CAP
1 *393:D 0.000456695
2 *367:Y 0.000456695
3 *393:D *367:A1 0.000148707
4 *393:D *405:A 1.37068e-05
5 *393:D *116:74 0.000196292
*RES
1 *367:Y *393:D 35.5286 
*END

*D_NET *35 0.00137562
*CONN
*I *394:D I *D sky130_fd_sc_hd__dfrtp_1
*I *371:X O *D sky130_fd_sc_hd__a21o_1
*CAP
1 *394:D 0.000457118
2 *371:X 0.000457118
3 *394:D *394:RESET_B 9.23759e-05
4 *394:D *395:RESET_B 3.63775e-05
5 *394:D *44:27 0.000123295
6 *394:D *116:14 8.60385e-05
7 *394:D *128:105 0.000123295
*RES
1 *371:X *394:D 34.3143 
*END

*D_NET *36 0.00275689
*CONN
*I *395:D I *D sky130_fd_sc_hd__dfrtp_1
*I *374:Y O *D sky130_fd_sc_hd__o21ai_1
*CAP
1 *395:D 0.000454997
2 *374:Y 0.000454997
3 *395:D *370:A2 0.000274538
4 *395:D *370:A3 1.03037e-05
5 *395:D *371:A2 5.65955e-05
6 *395:D *376:C 9.60875e-05
7 *395:D *376:D 0.000103967
8 *395:D *393:RESET_B 2.82055e-05
9 *395:D *395:CLK 7.32272e-05
10 *395:D *58:14 0.000125599
11 *395:D *58:29 5.64103e-05
12 *395:D *89:6 0.000269422
13 *395:D *89:13 0.000301438
14 *395:D *89:49 0.000392848
15 *395:D *116:74 5.82567e-05
*RES
1 *374:Y *395:D 40.7786 
*END

*D_NET *37 0.00192969
*CONN
*I *396:D I *D sky130_fd_sc_hd__dfrtp_1
*I *377:X O *D sky130_fd_sc_hd__a21o_1
*CAP
1 *396:D 0.000563551
2 *377:X 0.000563551
3 *396:D *395:CLK 0.000126439
4 *396:D *395:RESET_B 0.000171368
5 *396:D *400:D 0.000501097
6 *396:D *402:D 0
7 *396:D *435:A 3.68039e-06
*RES
1 *377:X *396:D 38.158 
*END

*D_NET *38 0.00279541
*CONN
*I *397:D I *D sky130_fd_sc_hd__dfrtp_1
*I *380:Y O *D sky130_fd_sc_hd__xnor2_1
*CAP
1 *397:D 0.000937289
2 *380:Y 0.000937289
3 *397:D *325:B 7.6644e-05
4 *397:D *379:A2 0
5 *397:D *380:A 6.94952e-05
6 *397:D *382:B 0
7 *397:D *383:B 0.000168996
8 *397:D *410:A 0
9 *397:D *60:18 1.01487e-05
10 *397:D *62:20 0
11 *397:D *80:6 5.49489e-05
12 *397:D *80:23 5.52302e-05
13 *397:D *80:58 0.000127353
14 *397:D *91:12 0.00012137
15 *397:D *91:29 0.000236645
*RES
1 *380:Y *397:D 45.7429 
*END

*D_NET *39 0.000364906
*CONN
*I *398:D I *D sky130_fd_sc_hd__dfrtp_1
*I *382:X O *D sky130_fd_sc_hd__xor2_1
*CAP
1 *398:D 0.000126432
2 *382:X 0.000126432
3 *398:D *382:A 5.65955e-05
4 *398:D *382:B 0
5 *398:D *383:B 5.54478e-05
*RES
1 *382:X *398:D 30.3857 
*END

*D_NET *40 0.0014491
*CONN
*I *399:D I *D sky130_fd_sc_hd__dfrtp_1
*I *383:X O *D sky130_fd_sc_hd__xor2_1
*CAP
1 *399:D 0.000372065
2 *383:X 0.000372065
3 *399:D *382:A 5.65955e-05
4 *399:D *383:A 0.000229354
5 *399:D *404:A 3.2871e-05
6 *399:D *408:A 3.34366e-05
7 *399:D *409:A 0
8 *399:D *413:A 0.000146545
9 *399:D *80:33 0.000173797
10 *399:D *92:18 3.23712e-05
*RES
1 *383:X *399:D 36.8857 
*END

*D_NET *41 0.0023466
*CONN
*I *364:A2 I *D sky130_fd_sc_hd__a21o_1
*I *363:Y O *D sky130_fd_sc_hd__nand2_1
*CAP
1 *364:A2 0.000454321
2 *363:Y 0.000454321
3 *364:A2 *324:C 4.40603e-05
4 *364:A2 *361:A2 0
5 *364:A2 *362:A1 5.33005e-05
6 *364:A2 *362:A4 0.000364332
7 *364:A2 *362:B1 3.75081e-05
8 *364:A2 *363:A 0.000228931
9 *364:A2 *364:A1 5.76121e-05
10 *364:A2 *364:B1 3.99614e-06
11 *364:A2 *81:40 0.000526641
12 *364:A2 *85:10 0.000121573
*RES
1 *363:Y *364:A2 39.3321 
*END

*D_NET *42 0.00163869
*CONN
*I *367:A1 I *D sky130_fd_sc_hd__o21ai_1
*I *365:X O *D sky130_fd_sc_hd__and3_1
*CAP
1 *367:A1 0.000317688
2 *365:X 0.000317688
3 *367:A1 *325:A 0
4 *367:A1 *365:B 6.04069e-05
5 *367:A1 *367:A2 0.000341788
6 *367:A1 *381:B1 8.44271e-06
7 *367:A1 *404:A 7.08654e-05
8 *367:A1 *405:A 5.74545e-05
9 *367:A1 *408:A 3.23542e-05
10 *367:A1 *58:29 4.84853e-05
11 *367:A1 *73:10 9.71197e-05
12 *367:A1 *110:18 4.50033e-05
13 *367:A1 *114:10 5.03772e-05
14 *367:A1 *116:74 4.23086e-05
15 *393:D *367:A1 0.000148707
*RES
1 *365:X *367:A1 36.8679 
*END

*D_NET *43 0.00144299
*CONN
*I *367:A2 I *D sky130_fd_sc_hd__o21ai_1
*I *366:Y O *D sky130_fd_sc_hd__a21oi_1
*CAP
1 *367:A2 0.000299563
2 *366:Y 0.000299563
3 *367:A2 *366:B1 8.70594e-05
4 *367:A2 *405:A 0.000341788
5 *367:A2 *87:27 7.32272e-05
6 *367:A1 *367:A2 0.000341788
*RES
1 *366:Y *367:A2 35.4036 
*END

*D_NET *44 0.00588196
*CONN
*I *373:C I *D sky130_fd_sc_hd__and3_1
*I *372:A2 I *D sky130_fd_sc_hd__a21oi_1
*I *369:B I *D sky130_fd_sc_hd__nand2_1
*I *376:D I *D sky130_fd_sc_hd__nand4_1
*I *375:A3 I *D sky130_fd_sc_hd__a31o_1
*I *368:X O *D sky130_fd_sc_hd__and3_1
*CAP
1 *373:C 0.000231755
2 *372:A2 1.07053e-05
3 *369:B 0.000250498
4 *376:D 0.000171183
5 *375:A3 6.23743e-05
6 *368:X 0.000515803
7 *44:59 0.000363717
8 *44:40 0.000416688
9 *44:27 0.000353163
10 *44:12 0.000715225
11 *369:B *371:A1 0.000222666
12 *369:B *377:A1 1.15172e-05
13 *369:B *400:D 0
14 *369:B *72:8 0
15 *369:B *114:33 0
16 *372:A2 *372:A1 1.81039e-05
17 *372:A2 *114:33 2.43154e-05
18 *373:C *372:A1 2.7638e-05
19 *373:C *372:B1 2.39329e-05
20 *373:C *373:A 5.52238e-05
21 *373:C *89:49 2.64748e-05
22 *373:C *114:29 6.44139e-06
23 *373:C *114:33 1.55909e-06
24 *375:A3 *325:C 3.34295e-05
25 *375:A3 *375:A2 6.02722e-05
26 *375:A3 *375:B1 2.286e-05
27 *375:A3 *380:B 0
28 *375:A3 *89:21 8.49986e-06
29 *375:A3 *90:10 2.28499e-05
30 *375:A3 *128:105 2.84494e-05
31 *376:D *376:C 9.60875e-05
32 *376:D *377:A2 3.18676e-05
33 *44:12 *365:B 0.000227532
34 *44:12 *368:A 0.000394975
35 *44:12 *368:B 5.33005e-05
36 *44:12 *375:B1 0.000123047
37 *44:12 *380:A 2.39313e-05
38 *44:12 *380:B 0.000192444
39 *44:12 *90:10 5.33005e-05
40 *44:12 *116:10 5.49544e-05
41 *44:27 *371:B1 3.34295e-05
42 *44:27 *87:12 0
43 *44:27 *89:21 0.000140011
44 *44:27 *128:105 0.00010807
45 *44:40 *371:B1 0.000126439
46 *44:40 *128:105 6.07232e-05
47 *44:59 *371:B1 7.71617e-05
48 *44:59 *72:8 5.52238e-05
49 *44:59 *114:33 8.66623e-05
50 *44:59 *128:92 6.20091e-06
51 *44:59 *128:105 2.39876e-05
52 *394:D *44:27 0.000123295
53 *395:D *376:D 0.000103967
*RES
1 *368:X *44:12 24.3357 
2 *44:12 *375:A3 15.4964 
3 *44:12 *44:27 4.375 
4 *44:27 *376:D 17.2286 
5 *44:27 *44:40 1.64286 
6 *44:40 *369:B 17.425 
7 *44:40 *44:59 7.52679 
8 *44:59 *372:A2 9.92054 
9 *44:59 *373:C 12.5946 
*END

*D_NET *45 0.00110033
*CONN
*I *371:A1 I *D sky130_fd_sc_hd__a21o_1
*I *369:Y O *D sky130_fd_sc_hd__nand2_1
*CAP
1 *371:A1 0.000251861
2 *369:Y 0.000251861
3 *371:A1 *371:B1 0.000161755
4 *371:A1 *377:A1 3.69047e-06
5 *371:A1 *72:8 5.74499e-06
6 *371:A1 *114:33 0.000136951
7 *371:A1 *114:35 6.58013e-05
8 *369:B *371:A1 0.000222666
*RES
1 *369:Y *371:A1 33.5107 
*END

*D_NET *46 0.000140382
*CONN
*I *371:A2 I *D sky130_fd_sc_hd__a21o_1
*I *370:X O *D sky130_fd_sc_hd__a31o_1
*CAP
1 *371:A2 3.92011e-05
2 *370:X 3.92011e-05
3 *371:A2 *370:A3 5.38444e-06
4 *395:D *371:A2 5.65955e-05
*RES
1 *370:X *371:A2 19.5643 
*END

*D_NET *47 0.000643046
*CONN
*I *374:A1 I *D sky130_fd_sc_hd__o21ai_1
*I *372:Y O *D sky130_fd_sc_hd__a21oi_1
*CAP
1 *374:A1 9.73238e-05
2 *372:Y 9.73238e-05
3 *374:A1 *372:A1 5.38444e-06
4 *374:A1 *372:B1 9.87617e-05
5 *374:A1 *374:A2 4.09398e-05
6 *374:A1 *73:10 0
7 *374:A1 *89:49 8.42609e-05
8 *374:A1 *114:10 0.000144272
9 *374:A1 *114:29 7.47798e-05
*RES
1 *372:Y *374:A1 22.0464 
*END

*D_NET *48 0.00023641
*CONN
*I *374:A2 I *D sky130_fd_sc_hd__o21ai_1
*I *373:X O *D sky130_fd_sc_hd__and3_1
*CAP
1 *374:A2 8.94659e-05
2 *373:X 8.94659e-05
3 *374:A2 *373:A 3.08382e-06
4 *374:A2 *114:10 1.34548e-05
5 *374:A1 *374:A2 4.09398e-05
*RES
1 *373:X *374:A2 20.4036 
*END

*D_NET *49 0.00188258
*CONN
*I *377:A1 I *D sky130_fd_sc_hd__a21o_1
*I *375:X O *D sky130_fd_sc_hd__a31o_1
*CAP
1 *377:A1 0.000418491
2 *375:X 0.000418491
3 *377:A1 *375:A2 7.61932e-05
4 *377:A1 *377:A2 8.15939e-05
5 *377:A1 *394:RESET_B 0
6 *377:A1 *400:D 0
7 *377:A1 *72:8 0.00014285
8 *377:A1 *72:16 0
9 *377:A1 *90:6 2.14757e-05
10 *377:A1 *90:10 9.80173e-05
11 *377:A1 *114:39 0.000211198
12 *377:A1 *114:45 0.000360816
13 *377:A1 *114:51 3.18676e-05
14 *377:A1 *116:34 0
15 *377:A1 *128:92 6.37883e-06
16 *369:B *377:A1 1.15172e-05
17 *371:A1 *377:A1 3.69047e-06
*RES
1 *375:X *377:A1 38.4393 
*END

*D_NET *50 0.000370454
*CONN
*I *377:A2 I *D sky130_fd_sc_hd__a21o_1
*I *376:Y O *D sky130_fd_sc_hd__nand4_1
*CAP
1 *377:A2 0.000110643
2 *376:Y 0.000110643
3 *377:A2 *395:CLK 0
4 *377:A2 *400:D 3.5707e-05
5 *376:D *377:A2 3.18676e-05
6 *377:A1 *377:A2 8.15939e-05
*RES
1 *376:Y *377:A2 30.0821 
*END

*D_NET *51 0.00208966
*CONN
*I *380:B I *D sky130_fd_sc_hd__xnor2_1
*I *378:Y O *D sky130_fd_sc_hd__o21ai_1
*CAP
1 *380:B 0.000498555
2 *378:Y 0.000498555
3 *380:B *327:C 4.58764e-05
4 *380:B *375:A2 0.000267289
5 *380:B *375:B1 2.8078e-05
6 *380:B *379:B1 1.02504e-05
7 *380:B *380:A 0.000139491
8 *380:B *114:51 0.00032961
9 *380:B *128:105 7.95105e-05
10 *375:A3 *380:B 0
11 *44:12 *380:B 0.000192444
*RES
1 *378:Y *380:B 38.1 
*END

*D_NET *52 0.000905531
*CONN
*I *382:B I *D sky130_fd_sc_hd__xor2_1
*I *379:X O *D sky130_fd_sc_hd__o211a_1
*CAP
1 *382:B 0.000452765
2 *379:X 0.000452765
3 *382:B *397:RESET_B 0
4 *382:B *398:CLK 0
5 *382:B *80:58 0
6 *382:B *91:12 0
7 *397:D *382:B 0
8 *398:D *382:B 0
*RES
1 *379:X *382:B 35.35 
*END

*D_NET *53 0.00144649
*CONN
*I *383:B I *D sky130_fd_sc_hd__xor2_1
*I *381:X O *D sky130_fd_sc_hd__o2111a_1
*CAP
1 *383:B 0.00047606
2 *381:X 0.00047606
3 *383:B *398:CLK 7.92975e-05
4 *383:B *60:18 2.06178e-05
5 *383:B *61:24 7.49993e-05
6 *383:B *91:29 5.72793e-05
7 *383:B *92:18 3.7729e-05
8 *397:D *383:B 0.000168996
9 *398:D *383:B 5.54478e-05
*RES
1 *381:X *383:B 37.9036 
*END

*D_NET *54 0.000867117
*CONN
*I *343:A1 I *D sky130_fd_sc_hd__a211o_1
*I *318:Y O *D sky130_fd_sc_hd__nand2_1
*CAP
1 *343:A1 0.00012761
2 *318:Y 0.00012761
3 *343:A1 *318:A 0.000175526
4 *343:A1 *343:A2 4.66203e-05
5 *343:A1 *345:B1 7.21353e-05
6 *343:A1 *95:34 0.00014209
7 *343:A1 *95:42 0.000175526
*RES
1 *318:Y *343:A1 32.2071 
*END

*D_NET *55 0.00319066
*CONN
*I *345:A1 I *D sky130_fd_sc_hd__o21ai_1
*I *348:B1 I *D sky130_fd_sc_hd__a21o_1
*I *319:X O *D sky130_fd_sc_hd__and3_1
*CAP
1 *345:A1 4.18254e-05
2 *348:B1 0.000344162
3 *319:X 0.000348176
4 *55:18 0.000734163
5 *345:A1 *345:A2 6.91157e-05
6 *345:A1 *113:21 3.90513e-05
7 *348:B1 *345:A2 9.25014e-06
8 *348:B1 *348:A1 5.62995e-05
9 *348:B1 *348:A2 9.25014e-06
10 *348:B1 *113:21 9.32406e-05
11 *348:B1 *128:14 0
12 *348:B1 *128:40 5.57727e-05
13 *55:18 *319:A 0.000136697
14 *55:18 *319:C 0.000254085
15 *55:18 *320:D 9.90431e-05
16 *55:18 *344:A1 7.3237e-05
17 *55:18 *344:A2 4.35452e-05
18 *55:18 *345:A2 4.87953e-05
19 *55:18 *96:23 0.000380492
20 startup_timed_out *345:A1 0.000154762
21 startup_timed_out *348:B1 0.000199698
22 *421:A *348:B1 0
*RES
1 *319:X *55:18 23.4607 
2 *55:18 *348:B1 20.6393 
3 *55:18 *345:A1 15.7464 
*END

*D_NET *56 0.00262544
*CONN
*I *322:B I *D sky130_fd_sc_hd__and2_1
*I *321:A I *D sky130_fd_sc_hd__inv_2
*I *339:B1 I *D sky130_fd_sc_hd__o311a_1
*I *320:X O *D sky130_fd_sc_hd__and4_1
*CAP
1 *322:B 7.27345e-05
2 *321:A 0.000156133
3 *339:B1 9.66408e-05
4 *320:X 7.88035e-05
5 *56:14 0.000657231
6 *56:12 0.000555996
7 *321:A *350:B1 0.000149047
8 *321:A *351:A2 0
9 *321:A *61:14 7.80039e-05
10 *322:B *322:A 1.33343e-05
11 *339:B1 *326:B 2.89016e-05
12 *339:B1 *339:A3 3.57366e-05
13 *339:B1 *339:C1 3.17016e-05
14 *339:B1 *61:14 9.22103e-06
15 *56:12 *320:C 2.79092e-05
16 *56:12 *117:43 0
17 *56:14 *322:A 7.03393e-05
18 *56:14 *339:C1 1.38323e-05
19 *56:14 *350:B1 0.00036192
20 *56:14 *99:23 0.000187951
*RES
1 *320:X *56:12 19.7643 
2 *56:12 *56:14 8.33929 
3 *56:14 *339:B1 11.0857 
4 *56:14 *321:A 21.5857 
5 *56:12 *322:B 10.675 
*END

*D_NET *57 0.00271211
*CONN
*I *349:A2 I *D sky130_fd_sc_hd__o21a_1
*I *350:B1 I *D sky130_fd_sc_hd__o21a_1
*I *321:Y O *D sky130_fd_sc_hd__inv_2
*CAP
1 *349:A2 0.000662746
2 *350:B1 0.000124063
3 *321:Y 0
4 *57:4 0.000786809
5 *349:A2 *349:A1 0.000104328
6 *349:A2 *351:A1 6.97409e-05
7 *349:A2 *351:A2 5.19842e-06
8 *349:A2 *351:B1_N 3.18676e-05
9 *349:A2 *67:20 7.65049e-06
10 *350:B1 *339:C1 0.000227539
11 *350:B1 *99:23 0.000144773
12 *350:B1 *128:58 3.64287e-05
13 *321:A *350:B1 0.000149047
14 *56:14 *350:B1 0.00036192
*RES
1 *321:Y *57:4 9.3 
2 *57:4 *350:B1 23.6571 
3 *57:4 *349:A2 17.6393 
*END

*D_NET *58 0.00737384
*CONN
*I *363:A I *D sky130_fd_sc_hd__nand2_1
*I *366:A1 I *D sky130_fd_sc_hd__a21oi_1
*I *368:C I *D sky130_fd_sc_hd__and3_1
*I *365:B I *D sky130_fd_sc_hd__and3_1
*I *370:A2 I *D sky130_fd_sc_hd__a31o_1
*I *323:X O *D sky130_fd_sc_hd__and4_1
*CAP
1 *363:A 0.000609128
2 *366:A1 3.09244e-05
3 *368:C 0.000215178
4 *365:B 0.000229933
5 *370:A2 9.99911e-05
6 *323:X 0
7 *58:46 0.000471407
8 *58:29 0.000615893
9 *58:14 0.000686739
10 *58:6 0.00103522
11 *363:A *360:B1 3.42301e-05
12 *363:A *363:B 0.000129979
13 *363:A *81:25 8.46259e-06
14 *363:A *81:40 5.79582e-06
15 *363:A *82:25 0.000149959
16 *363:A *85:10 0
17 *363:A *85:12 0
18 *363:A *85:25 0
19 *363:A *112:38 0.000114553
20 *365:B *393:RESET_B 5.63882e-05
21 *365:B *88:23 7.6997e-05
22 *365:B *116:10 1.183e-05
23 *366:A1 *115:60 1.98839e-05
24 *368:C *326:A 9.5171e-05
25 *368:C *59:12 7.47563e-05
26 *368:C *112:29 2.04866e-05
27 *368:C *115:16 0.000112231
28 *368:C *115:54 0.000151333
29 *370:A2 *370:A1 0
30 *370:A2 *87:6 8.57913e-05