* NGSPICE file created from por_dig.ext - technology: sky130A

* Black-box entry subcircuit for sky130_fd_sc_hd__tapvpwrvgnd_1 abstract view
.subckt sky130_fd_sc_hd__tapvpwrvgnd_1 VGND VPWR
.ends

* Black-box entry subcircuit for sky130_ef_sc_hd__decap_12 abstract view
.subckt sky130_ef_sc_hd__decap_12 VPWR VGND VPB VNB
.ends

* Black-box entry subcircuit for sky130_fd_sc_hd__dfrtp_1 abstract view
.subckt sky130_fd_sc_hd__dfrtp_1 CLK D RESET_B VGND VNB VPB VPWR Q
.ends

* Black-box entry subcircuit for sky130_fd_sc_hd__decap_3 abstract view
.subckt sky130_fd_sc_hd__decap_3 VGND VNB VPB VPWR
.ends

* Black-box entry subcircuit for sky130_fd_sc_hd__nand4_1 abstract view
.subckt sky130_fd_sc_hd__nand4_1 A B C D VGND VNB VPB VPWR Y
.ends

* Black-box entry subcircuit for sky130_fd_sc_hd__decap_8 abstract view
.subckt sky130_fd_sc_hd__decap_8 VGND VNB VPB VPWR
.ends

* Black-box entry subcircuit for sky130_fd_sc_hd__a21o_1 abstract view
.subckt sky130_fd_sc_hd__a21o_1 A1 A2 B1 VGND VNB VPB VPWR X
.ends

* Black-box entry subcircuit for sky130_fd_sc_hd__buf_2 abstract view
.subckt sky130_fd_sc_hd__buf_2 A VGND VNB VPB VPWR X
.ends

* Black-box entry subcircuit for sky130_fd_sc_hd__nand4_2 abstract view
.subckt sky130_fd_sc_hd__nand4_2 A B C D VGND VNB VPB VPWR Y
.ends

* Black-box entry subcircuit for sky130_fd_sc_hd__fill_1 abstract view
.subckt sky130_fd_sc_hd__fill_1 VGND VNB VPB VPWR
.ends

* Black-box entry subcircuit for sky130_fd_sc_hd__and4_1 abstract view
.subckt sky130_fd_sc_hd__and4_1 A B C D VGND VNB VPB VPWR X
.ends

* Black-box entry subcircuit for sky130_fd_sc_hd__fill_2 abstract view
.subckt sky130_fd_sc_hd__fill_2 VGND VNB VPB VPWR
.ends

* Black-box entry subcircuit for sky130_fd_sc_hd__a31o_1 abstract view
.subckt sky130_fd_sc_hd__a31o_1 A1 A2 A3 B1 VGND VNB VPB VPWR X
.ends

* Black-box entry subcircuit for sky130_fd_sc_hd__o21ai_1 abstract view
.subckt sky130_fd_sc_hd__o21ai_1 A1 A2 B1 VGND VNB VPB VPWR Y
.ends

* Black-box entry subcircuit for sky130_fd_sc_hd__and3_1 abstract view
.subckt sky130_fd_sc_hd__and3_1 A B C VGND VNB VPB VPWR X
.ends

* Black-box entry subcircuit for sky130_fd_sc_hd__decap_6 abstract view
.subckt sky130_fd_sc_hd__decap_6 VGND VNB VPB VPWR
.ends

* Black-box entry subcircuit for sky130_fd_sc_hd__a41o_1 abstract view
.subckt sky130_fd_sc_hd__a41o_1 A1 A2 A3 A4 B1 VGND VNB VPB VPWR X
.ends

* Black-box entry subcircuit for sky130_fd_sc_hd__conb_1 abstract view
.subckt sky130_fd_sc_hd__conb_1 VGND VNB VPB VPWR HI LO
.ends

* Black-box entry subcircuit for sky130_fd_sc_hd__or2_1 abstract view
.subckt sky130_fd_sc_hd__or2_1 A B VGND VNB VPB VPWR X
.ends

* Black-box entry subcircuit for sky130_fd_sc_hd__nand2_1 abstract view
.subckt sky130_fd_sc_hd__nand2_1 A B VGND VNB VPB VPWR Y
.ends

* Black-box entry subcircuit for sky130_fd_sc_hd__decap_4 abstract view
.subckt sky130_fd_sc_hd__decap_4 VGND VNB VPB VPWR
.ends

* Black-box entry subcircuit for sky130_fd_sc_hd__nor2_1 abstract view
.subckt sky130_fd_sc_hd__nor2_1 A B VGND VNB VPB VPWR Y
.ends

* Black-box entry subcircuit for sky130_fd_sc_hd__a21oi_1 abstract view
.subckt sky130_fd_sc_hd__a21oi_1 A1 A2 B1 VGND VNB VPB VPWR Y
.ends

* Black-box entry subcircuit for sky130_fd_sc_hd__clkbuf_2 abstract view
.subckt sky130_fd_sc_hd__clkbuf_2 A VGND VNB VPB VPWR X
.ends

* Black-box entry subcircuit for sky130_fd_sc_hd__clkbuf_1 abstract view
.subckt sky130_fd_sc_hd__clkbuf_1 A VGND VNB VPB VPWR X
.ends

* Black-box entry subcircuit for sky130_fd_sc_hd__o311a_1 abstract view
.subckt sky130_fd_sc_hd__o311a_1 A1 A2 A3 B1 C1 VGND VNB VPB VPWR X
.ends

* Black-box entry subcircuit for sky130_fd_sc_hd__and2_1 abstract view
.subckt sky130_fd_sc_hd__and2_1 A B VGND VNB VPB VPWR X
.ends

* Black-box entry subcircuit for sky130_fd_sc_hd__dfrtp_2 abstract view
.subckt sky130_fd_sc_hd__dfrtp_2 CLK D RESET_B VGND VNB VPB VPWR Q
.ends

* Black-box entry subcircuit for sky130_fd_sc_hd__inv_2 abstract view
.subckt sky130_fd_sc_hd__inv_2 A VGND VNB VPB VPWR Y
.ends

* Black-box entry subcircuit for sky130_fd_sc_hd__nand2b_1 abstract view
.subckt sky130_fd_sc_hd__nand2b_1 A_N B VGND VNB VPB VPWR Y
.ends

* Black-box entry subcircuit for sky130_fd_sc_hd__clkbuf_4 abstract view
.subckt sky130_fd_sc_hd__clkbuf_4 A VGND VNB VPB VPWR X
.ends

* Black-box entry subcircuit for sky130_fd_sc_hd__or3b_1 abstract view
.subckt sky130_fd_sc_hd__or3b_1 A B C_N VGND VNB VPB VPWR X
.ends

* Black-box entry subcircuit for sky130_fd_sc_hd__dfrtp_4 abstract view
.subckt sky130_fd_sc_hd__dfrtp_4 CLK D RESET_B VGND VNB VPB VPWR Q
.ends

* Black-box entry subcircuit for sky130_fd_sc_hd__mux2_1 abstract view
.subckt sky130_fd_sc_hd__mux2_1 A0 A1 S VGND VNB VPB VPWR X
.ends

* Black-box entry subcircuit for sky130_fd_sc_hd__dlymetal6s2s_1 abstract view
.subckt sky130_fd_sc_hd__dlymetal6s2s_1 A VGND VNB VPB VPWR X
.ends

* Black-box entry subcircuit for sky130_fd_sc_hd__and3b_1 abstract view
.subckt sky130_fd_sc_hd__and3b_1 A_N B C VGND VNB VPB VPWR X
.ends

* Black-box entry subcircuit for sky130_fd_sc_hd__nor3b_1 abstract view
.subckt sky130_fd_sc_hd__nor3b_1 A B C_N VGND VNB VPB VPWR Y
.ends

* Black-box entry subcircuit for sky130_fd_sc_hd__clkbuf_16 abstract view
.subckt sky130_fd_sc_hd__clkbuf_16 A VGND VNB VPB VPWR X
.ends

* Black-box entry subcircuit for sky130_fd_sc_hd__buf_1 abstract view
.subckt sky130_fd_sc_hd__buf_1 A VGND VNB VPB VPWR X
.ends

* Black-box entry subcircuit for sky130_fd_sc_hd__xor2_1 abstract view
.subckt sky130_fd_sc_hd__xor2_1 A B VGND VNB VPB VPWR X
.ends

* Black-box entry subcircuit for sky130_fd_sc_hd__dlygate4sd3_1 abstract view
.subckt sky130_fd_sc_hd__dlygate4sd3_1 A VGND VNB VPB VPWR X
.ends

* Black-box entry subcircuit for sky130_fd_sc_hd__a21bo_1 abstract view
.subckt sky130_fd_sc_hd__a21bo_1 A1 A2 B1_N VGND VNB VPB VPWR X
.ends

* Black-box entry subcircuit for sky130_fd_sc_hd__o21a_1 abstract view
.subckt sky130_fd_sc_hd__o21a_1 A1 A2 B1 VGND VNB VPB VPWR X
.ends

* Black-box entry subcircuit for sky130_fd_sc_hd__o2111a_1 abstract view
.subckt sky130_fd_sc_hd__o2111a_1 A1 A2 B1 C1 D1 VGND VNB VPB VPWR X
.ends

* Black-box entry subcircuit for sky130_fd_sc_hd__nor3_1 abstract view
.subckt sky130_fd_sc_hd__nor3_1 A B C VGND VNB VPB VPWR Y
.ends

* Black-box entry subcircuit for sky130_fd_sc_hd__xnor2_1 abstract view
.subckt sky130_fd_sc_hd__xnor2_1 A B VGND VNB VPB VPWR Y
.ends

* Black-box entry subcircuit for sky130_fd_sc_hd__nand3_1 abstract view
.subckt sky130_fd_sc_hd__nand3_1 A B C VGND VNB VPB VPWR Y
.ends

* Black-box entry subcircuit for sky130_fd_sc_hd__o211a_1 abstract view
.subckt sky130_fd_sc_hd__o211a_1 A1 A2 B1 C1 VGND VNB VPB VPWR X
.ends

* Black-box entry subcircuit for sky130_fd_sc_hd__a211o_1 abstract view
.subckt sky130_fd_sc_hd__a211o_1 A1 A2 B1 C1 VGND VNB VPB VPWR X
.ends

.subckt por_dig VGND VPWR force_dis_rc_osc force_ena_rc_osc force_pdn force_pdnb force_short_oneshot
+ osc_ck osc_ena otrip[0] otrip[1] otrip[2] otrip_decoded[0] otrip_decoded[1] otrip_decoded[2]
+ otrip_decoded[3] otrip_decoded[4] otrip_decoded[5] otrip_decoded[6] otrip_decoded[7]
+ por_timed_out por_unbuf pwup_filt startup_timed_out
XTAP_TAPCELL_ROW_12_54 VGND VPWR sky130_fd_sc_hd__tapvpwrvgnd_1
XFILLER_0_2_7 VPWR VGND VPWR VGND sky130_ef_sc_hd__decap_12
X_131_ clknet_1_0__leaf_osc_ck _010_ net24 VGND VGND VPWR VPWR cnt_por\[5\] sky130_fd_sc_hd__dfrtp_1
XPHY_EDGE_ROW_8_Left_25 VGND VGND VPWR VPWR sky130_fd_sc_hd__decap_3
X_062_ cnt_por\[5\] cnt_por\[4\] cnt_por\[7\] cnt_por\[6\] VGND VGND VPWR VPWR _035_
+ sky130_fd_sc_hd__nand4_1
XFILLER_0_16_73 VGND VGND VPWR VPWR sky130_fd_sc_hd__decap_8
X_114_ _024_ _025_ _047_ VGND VGND VPWR VPWR _012_ sky130_fd_sc_hd__a21o_1
Xoutput20 net20 VGND VGND VPWR VPWR por_unbuf sky130_fd_sc_hd__buf_2
XPHY_EDGE_ROW_12_Right_12 VGND VGND VPWR VPWR sky130_fd_sc_hd__decap_3
X_130_ clknet_1_1__leaf_osc_ck _009_ net24 VGND VGND VPWR VPWR cnt_por\[4\] sky130_fd_sc_hd__dfrtp_1
X_061_ cnt_por\[1\] cnt_por\[0\] cnt_por\[3\] cnt_por\[2\] VGND VGND VPWR VPWR _034_
+ sky130_fd_sc_hd__nand4_2
XFILLER_0_10_42 VGND VGND VPWR VPWR sky130_fd_sc_hd__fill_1
X_113_ cnt_por\[7\] cnt_por\[6\] net22 _019_ VGND VGND VPWR VPWR _025_ sky130_fd_sc_hd__nand4_1
XFILLER_0_16_85 VPWR VGND VPWR VGND sky130_ef_sc_hd__decap_12
XPHY_EDGE_ROW_6_Right_6 VGND VGND VPWR VPWR sky130_fd_sc_hd__decap_3
Xoutput21 net21 VGND VGND VPWR VPWR startup_timed_out sky130_fd_sc_hd__buf_2
Xoutput10 net10 VGND VGND VPWR VPWR osc_ena sky130_fd_sc_hd__buf_2
XFILLER_0_11_6 VGND VGND VPWR VPWR sky130_fd_sc_hd__fill_1
X_060_ cnt_por\[1\] cnt_por\[0\] cnt_por\[3\] cnt_por\[2\] VGND VGND VPWR VPWR _033_
+ sky130_fd_sc_hd__and4_1
XFILLER_0_4_62 VGND VGND VPWR VPWR sky130_fd_sc_hd__fill_2
X_112_ cnt_por\[6\] net22 _019_ cnt_por\[7\] VGND VGND VPWR VPWR _024_ sky130_fd_sc_hd__a31o_1
XFILLER_0_1_41 VGND VGND VPWR VPWR sky130_fd_sc_hd__fill_1
XFILLER_0_1_96 VGND VGND VPWR VPWR sky130_fd_sc_hd__fill_2
XFILLER_0_16_97 VGND VGND VPWR VPWR sky130_fd_sc_hd__fill_1
XFILLER_0_9_3 VGND VGND VPWR VPWR sky130_fd_sc_hd__fill_2
Xoutput11 net11 VGND VGND VPWR VPWR otrip_decoded[0] sky130_fd_sc_hd__buf_2
Xoutput9 net9 VGND VGND VPWR VPWR force_pdnb sky130_fd_sc_hd__buf_2
XTAP_TAPCELL_ROW_8_47 VGND VPWR sky130_fd_sc_hd__tapvpwrvgnd_1
XFILLER_0_4_85 VPWR VGND VPWR VGND sky130_ef_sc_hd__decap_12
X_111_ _022_ _023_ _048_ VGND VGND VPWR VPWR _011_ sky130_fd_sc_hd__o21ai_1
Xoutput12 net12 VGND VGND VPWR VPWR otrip_decoded[1] sky130_fd_sc_hd__buf_2
XFILLER_0_1_64 VPWR VGND VPWR VGND sky130_ef_sc_hd__decap_12
XTAP_TAPCELL_ROW_2_38 VGND VPWR sky130_fd_sc_hd__tapvpwrvgnd_1
XTAP_TAPCELL_ROW_8_48 VGND VPWR sky130_fd_sc_hd__tapvpwrvgnd_1
XFILLER_0_4_97 VGND VGND VPWR VPWR sky130_fd_sc_hd__fill_1
XPHY_EDGE_ROW_12_Left_29 VGND VGND VPWR VPWR sky130_fd_sc_hd__decap_3
X_110_ cnt_por\[6\] net22 _019_ VGND VGND VPWR VPWR _023_ sky130_fd_sc_hd__and3_1
XFILLER_0_1_10 VGND VGND VPWR VPWR sky130_fd_sc_hd__decap_6
XFILLER_0_1_21 VGND VGND VPWR VPWR sky130_fd_sc_hd__fill_1
XFILLER_0_1_76 VPWR VGND VPWR VGND sky130_ef_sc_hd__decap_12
XFILLER_0_16_55 VGND VGND VPWR VPWR sky130_fd_sc_hd__fill_1
XTAP_TAPCELL_ROW_15_58 VGND VPWR sky130_fd_sc_hd__tapvpwrvgnd_1
XPHY_EDGE_ROW_15_Left_32 VGND VGND VPWR VPWR sky130_fd_sc_hd__decap_3
Xoutput13 net13 VGND VGND VPWR VPWR otrip_decoded[2] sky130_fd_sc_hd__buf_2
XTAP_TAPCELL_ROW_2_39 VGND VPWR sky130_fd_sc_hd__tapvpwrvgnd_1
XFILLER_0_13_78 VPWR VGND VPWR VGND sky130_ef_sc_hd__decap_12
XPHY_EDGE_ROW_0_Left_17 VGND VGND VPWR VPWR sky130_fd_sc_hd__decap_3
XFILLER_0_0_9 VGND VGND VPWR VPWR sky130_fd_sc_hd__fill_1
XPHY_EDGE_ROW_3_Left_20 VGND VGND VPWR VPWR sky130_fd_sc_hd__decap_3
XFILLER_0_1_88 VGND VGND VPWR VPWR sky130_fd_sc_hd__decap_8
XFILLER_0_13_46 VGND VGND VPWR VPWR sky130_fd_sc_hd__fill_1
XFILLER_0_7_65 VGND VGND VPWR VPWR sky130_fd_sc_hd__decap_6
Xoutput14 net14 VGND VGND VPWR VPWR otrip_decoded[3] sky130_fd_sc_hd__buf_2
XFILLER_0_4_33 VGND VGND VPWR VPWR sky130_fd_sc_hd__fill_1
X_099_ cnt_por\[1\] cnt_por\[0\] cnt_por\[2\] net20 cnt_por\[3\] VGND VGND VPWR VPWR
+ _053_ sky130_fd_sc_hd__a41o_1
Xoutput15 net15 VGND VGND VPWR VPWR otrip_decoded[4] sky130_fd_sc_hd__buf_2
XPHY_EDGE_ROW_1_Right_1 VGND VGND VPWR VPWR sky130_fd_sc_hd__decap_3
XFILLER_0_7_77 VGND VGND VPWR VPWR sky130_fd_sc_hd__decap_8
XFILLER_0_7_55 VGND VGND VPWR VPWR sky130_fd_sc_hd__fill_1
XTAP_TAPCELL_ROW_3_40 VGND VPWR sky130_fd_sc_hd__tapvpwrvgnd_1
XFILLER_0_16_36 VPWR VGND VPWR VGND sky130_ef_sc_hd__decap_12
X_098_ _051_ _052_ _047_ VGND VGND VPWR VPWR _007_ sky130_fd_sc_hd__a21o_1
XTAP_TAPCELL_ROW_10_50 VGND VPWR sky130_fd_sc_hd__tapvpwrvgnd_1
XTAP_TAPCELL_ROW_16_60 VGND VPWR sky130_fd_sc_hd__tapvpwrvgnd_1
XPHY_EDGE_ROW_15_Right_15 VGND VGND VPWR VPWR sky130_fd_sc_hd__decap_3
XFILLER_0_13_15 VGND VGND VPWR VPWR sky130_fd_sc_hd__decap_3
XFILLER_0_7_23 VGND VGND VPWR VPWR sky130_fd_sc_hd__fill_2
Xoutput16 net16 VGND VGND VPWR VPWR otrip_decoded[5] sky130_fd_sc_hd__buf_2
XFILLER_0_4_13 VPWR VGND VPWR VGND sky130_ef_sc_hd__decap_12
X_097_ cnt_por\[1\] cnt_por\[0\] net23 cnt_por\[2\] VGND VGND VPWR VPWR _052_ sky130_fd_sc_hd__a31o_1
XFILLER_0_16_48 VGND VGND VPWR VPWR sky130_fd_sc_hd__decap_3
XFILLER_0_16_15 VPWR VGND VPWR VGND sky130_ef_sc_hd__decap_12
XTAP_TAPCELL_ROW_10_51 VGND VPWR sky130_fd_sc_hd__tapvpwrvgnd_1
XPHY_EDGE_ROW_7_Left_24 VGND VGND VPWR VPWR sky130_fd_sc_hd__decap_3
Xoutput17 net17 VGND VGND VPWR VPWR otrip_decoded[6] sky130_fd_sc_hd__buf_2
XTAP_TAPCELL_ROW_16_61 VGND VPWR sky130_fd_sc_hd__tapvpwrvgnd_1
XFILLER_0_16_3 VPWR VGND VPWR VGND sky130_ef_sc_hd__decap_12
XFILLER_0_13_38 VGND VGND VPWR VPWR sky130_fd_sc_hd__fill_1
X_137__26 VGND VGND VPWR VPWR net26 _137__26/LO sky130_fd_sc_hd__conb_1
XFILLER_0_5_3 VGND VGND VPWR VPWR sky130_fd_sc_hd__fill_2
XFILLER_0_4_25 VGND VGND VPWR VPWR sky130_fd_sc_hd__decap_3
XFILLER_0_16_27 VGND VGND VPWR VPWR sky130_fd_sc_hd__fill_1
X_096_ cnt_por\[1\] cnt_por\[0\] cnt_por\[2\] net23 VGND VGND VPWR VPWR _051_ sky130_fd_sc_hd__nand4_1
XFILLER_0_5_90 VGND VGND VPWR VPWR sky130_fd_sc_hd__fill_1
X_079_ cnt_st\[1\] cnt_st\[0\] VGND VGND VPWR VPWR _040_ sky130_fd_sc_hd__or2_1
XPHY_EDGE_ROW_5_Right_5 VGND VGND VPWR VPWR sky130_fd_sc_hd__decap_3
Xoutput18 net18 VGND VGND VPWR VPWR otrip_decoded[7] sky130_fd_sc_hd__buf_2
XFILLER_0_14_71 VPWR VGND VPWR VGND sky130_ef_sc_hd__decap_12
X_095_ _049_ _050_ _048_ VGND VGND VPWR VPWR _006_ sky130_fd_sc_hd__o21ai_1
XFILLER_0_1_16 VGND VGND VPWR VPWR sky130_fd_sc_hd__fill_1
X_078_ net31 _039_ VGND VGND VPWR VPWR _000_ sky130_fd_sc_hd__nand2_1
XFILLER_0_11_94 VGND VGND VPWR VPWR sky130_fd_sc_hd__decap_4
XFILLER_0_11_61 VGND VGND VPWR VPWR sky130_fd_sc_hd__decap_4
Xoutput19 net19 VGND VGND VPWR VPWR por_timed_out sky130_fd_sc_hd__buf_2
XFILLER_0_2_81 VGND VGND VPWR VPWR sky130_fd_sc_hd__decap_3
XPHY_EDGE_ROW_11_Right_11 VGND VGND VPWR VPWR sky130_fd_sc_hd__decap_3
XFILLER_0_14_83 VGND VGND VPWR VPWR sky130_fd_sc_hd__fill_1
XTAP_TAPCELL_ROW_0_34 VGND VPWR sky130_fd_sc_hd__tapvpwrvgnd_1
XFILLER_0_16_29 VGND VGND VPWR VPWR sky130_fd_sc_hd__decap_4
X_094_ cnt_por\[1\] cnt_por\[0\] net23 VGND VGND VPWR VPWR _050_ sky130_fd_sc_hd__and3_1
XFILLER_0_1_28 VGND VGND VPWR VPWR sky130_fd_sc_hd__decap_3
X_129_ clknet_1_1__leaf_osc_ck _008_ net24 VGND VGND VPWR VPWR cnt_por\[3\] sky130_fd_sc_hd__dfrtp_1
X_077_ net4 net21 VGND VGND VPWR VPWR _039_ sky130_fd_sc_hd__nor2_1
XTAP_TAPCELL_ROW_6_44 VGND VPWR sky130_fd_sc_hd__tapvpwrvgnd_1
XFILLER_0_14_3 VPWR VGND VPWR VGND sky130_ef_sc_hd__decap_12
X_093_ cnt_por\[0\] net23 cnt_por\[1\] VGND VGND VPWR VPWR _049_ sky130_fd_sc_hd__a21oi_1
Xfanout22 net23 VGND VGND VPWR VPWR net22 sky130_fd_sc_hd__clkbuf_2
XTAP_TAPCELL_ROW_0_35 VGND VPWR sky130_fd_sc_hd__tapvpwrvgnd_1
Xinput1 force_dis_rc_osc VGND VGND VPWR VPWR net1 sky130_fd_sc_hd__clkbuf_1
XPHY_EDGE_ROW_11_Left_28 VGND VGND VPWR VPWR sky130_fd_sc_hd__decap_3
XTAP_TAPCELL_ROW_6_45 VGND VPWR sky130_fd_sc_hd__tapvpwrvgnd_1
X_076_ _034_ _035_ _037_ _031_ cnt_st\[4\] VGND VGND VPWR VPWR net20 sky130_fd_sc_hd__o311a_1
X_128_ clknet_1_1__leaf_osc_ck _007_ net24 VGND VGND VPWR VPWR cnt_por\[2\] sky130_fd_sc_hd__dfrtp_1
XPHY_EDGE_ROW_9_Right_9 VGND VGND VPWR VPWR sky130_fd_sc_hd__decap_3
X_059_ cnt_st\[4\] _031_ VGND VGND VPWR VPWR net21 sky130_fd_sc_hd__and2_1
XFILLER_0_14_85 VPWR VGND VPWR VGND sky130_ef_sc_hd__decap_12
XTAP_TAPCELL_ROW_13_55 VGND VPWR sky130_fd_sc_hd__tapvpwrvgnd_1
XPHY_EDGE_ROW_14_Left_31 VGND VGND VPWR VPWR sky130_fd_sc_hd__decap_3
Xfanout23 net20 VGND VGND VPWR VPWR net23 sky130_fd_sc_hd__clkbuf_2
XTAP_TAPCELL_ROW_0_36 VGND VPWR sky130_fd_sc_hd__tapvpwrvgnd_1
XFILLER_0_4_29 VGND VGND VPWR VPWR sky130_fd_sc_hd__decap_4
X_092_ net4 net22 VGND VGND VPWR VPWR _048_ sky130_fd_sc_hd__nand2_1
Xinput2 force_ena_rc_osc VGND VGND VPWR VPWR net2 sky130_fd_sc_hd__clkbuf_1
X_127_ clknet_1_1__leaf_osc_ck _006_ net24 VGND VGND VPWR VPWR cnt_por\[1\] sky130_fd_sc_hd__dfrtp_2
X_058_ _031_ VGND VGND VPWR VPWR _032_ sky130_fd_sc_hd__inv_2
X_075_ net2 _038_ VGND VGND VPWR VPWR net10 sky130_fd_sc_hd__nand2b_1
XFILLER_0_14_97 VGND VGND VPWR VPWR sky130_fd_sc_hd__fill_1
Xfanout24 net27 VGND VGND VPWR VPWR net24 sky130_fd_sc_hd__clkbuf_4
XFILLER_0_5_84 VGND VGND VPWR VPWR sky130_fd_sc_hd__decap_6
X_091_ net4 net22 VGND VGND VPWR VPWR _047_ sky130_fd_sc_hd__and2_1
XFILLER_0_11_32 VGND VGND VPWR VPWR sky130_fd_sc_hd__fill_2
XFILLER_0_11_10 VGND VGND VPWR VPWR sky130_fd_sc_hd__decap_8
X_074_ net1 net19 net8 VGND VGND VPWR VPWR _038_ sky130_fd_sc_hd__or3b_1
Xinput3 force_pdn VGND VGND VPWR VPWR net3 sky130_fd_sc_hd__clkbuf_1
X_126_ clknet_1_1__leaf_osc_ck _005_ net24 VGND VGND VPWR VPWR cnt_por\[0\] sky130_fd_sc_hd__dfrtp_4
X_057_ cnt_st\[1\] cnt_st\[0\] cnt_st\[3\] cnt_st\[2\] VGND VGND VPWR VPWR _031_ sky130_fd_sc_hd__and4_1
XPHY_EDGE_ROW_0_Right_0 VGND VGND VPWR VPWR sky130_fd_sc_hd__decap_3
XFILLER_0_2_85 VPWR VGND VPWR VGND sky130_ef_sc_hd__decap_12
XFILLER_0_12_3 VPWR VGND VPWR VGND sky130_ef_sc_hd__decap_12
X_109_ net22 _019_ cnt_por\[6\] VGND VGND VPWR VPWR _022_ sky130_fd_sc_hd__a21oi_1
Xfanout25 net27 VGND VGND VPWR VPWR net25 sky130_fd_sc_hd__clkbuf_2
X_090_ net23 _046_ cnt_por\[0\] VGND VGND VPWR VPWR _005_ sky130_fd_sc_hd__mux2_1
XFILLER_0_11_55 VGND VGND VPWR VPWR sky130_fd_sc_hd__fill_1
Xinput4 force_short_oneshot VGND VGND VPWR VPWR net4 sky130_fd_sc_hd__buf_2
XFILLER_0_5_96 VGND VGND VPWR VPWR sky130_fd_sc_hd__fill_2
XFILLER_0_5_52 VGND VGND VPWR VPWR sky130_fd_sc_hd__decap_4
X_056_ cnt_st\[1\] cnt_st\[0\] cnt_st\[2\] VGND VGND VPWR VPWR _030_ sky130_fd_sc_hd__and3_1
X_125_ clknet_1_0__leaf_osc_ck _004_ net25 VGND VGND VPWR VPWR cnt_st\[4\] sky130_fd_sc_hd__dfrtp_1
X_073_ net7 net6 net5 VGND VGND VPWR VPWR net18 sky130_fd_sc_hd__and3_1
XFILLER_0_2_97 VGND VGND VPWR VPWR sky130_fd_sc_hd__fill_1
X_108_ _020_ _021_ _047_ VGND VGND VPWR VPWR _010_ sky130_fd_sc_hd__a21o_1
XFILLER_0_8_96 VGND VGND VPWR VPWR sky130_fd_sc_hd__fill_2
Xinput5 otrip[0] VGND VGND VPWR VPWR net5 sky130_fd_sc_hd__dlymetal6s2s_1
X_072_ net5 net6 net7 VGND VGND VPWR VPWR net17 sky130_fd_sc_hd__and3b_1
X_055_ cnt_st\[1\] cnt_st\[0\] VGND VGND VPWR VPWR _029_ sky130_fd_sc_hd__nand2_1
XPHY_EDGE_ROW_6_Left_23 VGND VGND VPWR VPWR sky130_fd_sc_hd__decap_3
X_124_ clknet_1_0__leaf_osc_ck _003_ net25 VGND VGND VPWR VPWR cnt_st\[3\] sky130_fd_sc_hd__dfrtp_1
X_107_ cnt_por\[4\] _033_ net22 cnt_por\[5\] VGND VGND VPWR VPWR _021_ sky130_fd_sc_hd__a31o_1
XTAP_TAPCELL_ROW_9_49 VGND VPWR sky130_fd_sc_hd__tapvpwrvgnd_1
XPHY_EDGE_ROW_14_Right_14 VGND VGND VPWR VPWR sky130_fd_sc_hd__decap_3
Xinput6 otrip[1] VGND VGND VPWR VPWR net6 sky130_fd_sc_hd__dlymetal6s2s_1
X_071_ net6 net5 net7 VGND VGND VPWR VPWR net16 sky130_fd_sc_hd__and3b_1
XTAP_TAPCELL_ROW_16_59 VGND VPWR sky130_fd_sc_hd__tapvpwrvgnd_1
X_106_ net22 _019_ VGND VGND VPWR VPWR _020_ sky130_fd_sc_hd__nand2_1
X_123_ clknet_1_1__leaf_osc_ck _002_ net24 VGND VGND VPWR VPWR cnt_st\[2\] sky130_fd_sc_hd__dfrtp_1
XPHY_EDGE_ROW_4_Right_4 VGND VGND VPWR VPWR sky130_fd_sc_hd__decap_3
X_054_ net3 VGND VGND VPWR VPWR net9 sky130_fd_sc_hd__inv_2
XFILLER_0_11_47 VGND VGND VPWR VPWR sky130_fd_sc_hd__fill_1
XFILLER_0_1_6 VGND VGND VPWR VPWR sky130_fd_sc_hd__fill_1
Xinput7 otrip[2] VGND VGND VPWR VPWR net7 sky130_fd_sc_hd__dlymetal6s2s_1
X_070_ net6 net5 net7 VGND VGND VPWR VPWR net15 sky130_fd_sc_hd__nor3b_1
X_122_ clknet_1_1__leaf_osc_ck _001_ net25 VGND VGND VPWR VPWR cnt_st\[1\] sky130_fd_sc_hd__dfrtp_1
X_105_ cnt_por\[5\] cnt_por\[4\] _033_ VGND VGND VPWR VPWR _019_ sky130_fd_sc_hd__and3_1
XFILLER_0_8_66 VPWR VGND VPWR VGND sky130_ef_sc_hd__decap_12
XFILLER_0_12_80 VGND VGND VPWR VPWR sky130_fd_sc_hd__decap_4
Xclkbuf_1_1__f_osc_ck clknet_0_osc_ck VGND VGND VPWR VPWR clknet_1_1__leaf_osc_ck
+ sky130_fd_sc_hd__clkbuf_16
XFILLER_0_2_46 VGND VGND VPWR VPWR sky130_fd_sc_hd__decap_3
XFILLER_0_2_57 VPWR VGND VPWR VGND sky130_ef_sc_hd__decap_12
Xinput8 pwup_filt VGND VGND VPWR VPWR net8 sky130_fd_sc_hd__buf_1
X_121_ clknet_1_1__leaf_osc_ck _000_ net25 VGND VGND VPWR VPWR cnt_st\[0\] sky130_fd_sc_hd__dfrtp_1
X_104_ _017_ _018_ _048_ VGND VGND VPWR VPWR _009_ sky130_fd_sc_hd__o21ai_1
XFILLER_0_14_15 VGND VGND VPWR VPWR sky130_fd_sc_hd__fill_1
XFILLER_0_8_78 VGND VGND VPWR VPWR sky130_fd_sc_hd__fill_1
XTAP_TAPCELL_ROW_4_41 VGND VPWR sky130_fd_sc_hd__tapvpwrvgnd_1
XFILLER_0_5_57 VGND VGND VPWR VPWR sky130_fd_sc_hd__decap_4
XPHY_EDGE_ROW_10_Right_10 VGND VGND VPWR VPWR sky130_fd_sc_hd__decap_3
XPHY_EDGE_ROW_10_Left_27 VGND VGND VPWR VPWR sky130_fd_sc_hd__decap_3
XFILLER_0_2_69 VPWR VGND VPWR VGND sky130_ef_sc_hd__decap_12
X_120_ net29 _028_ VGND VGND VPWR VPWR _015_ sky130_fd_sc_hd__xor2_1
X_103_ _033_ net23 cnt_por\[4\] VGND VGND VPWR VPWR _018_ sky130_fd_sc_hd__a21oi_1
XTAP_TAPCELL_ROW_4_42 VGND VPWR sky130_fd_sc_hd__tapvpwrvgnd_1
XPHY_EDGE_ROW_13_Left_30 VGND VGND VPWR VPWR sky130_fd_sc_hd__decap_3
XPHY_EDGE_ROW_8_Right_8 VGND VGND VPWR VPWR sky130_fd_sc_hd__decap_3
Xhold1 cnt_rsb VGND VGND VPWR VPWR net27 sky130_fd_sc_hd__dlygate4sd3_1
XFILLER_0_2_37 VGND VGND VPWR VPWR sky130_fd_sc_hd__decap_3
XFILLER_0_12_93 VGND VGND VPWR VPWR sky130_fd_sc_hd__decap_4
XTAP_TAPCELL_ROW_11_52 VGND VPWR sky130_fd_sc_hd__tapvpwrvgnd_1
Xclkbuf_0_osc_ck osc_ck VGND VGND VPWR VPWR clknet_0_osc_ck sky130_fd_sc_hd__clkbuf_16
X_102_ cnt_por\[4\] _033_ net23 VGND VGND VPWR VPWR _017_ sky130_fd_sc_hd__and3_1
Xhold2 cnt_rsb_stg1 VGND VGND VPWR VPWR net28 sky130_fd_sc_hd__dlygate4sd3_1
XFILLER_0_0_70 VGND VGND VPWR VPWR sky130_fd_sc_hd__decap_3
XFILLER_0_2_27 VGND VGND VPWR VPWR sky130_fd_sc_hd__fill_1
X_101_ _053_ _016_ _047_ VGND VGND VPWR VPWR _008_ sky130_fd_sc_hd__a21o_1
XFILLER_0_15_61 VPWR VGND VPWR VGND sky130_ef_sc_hd__decap_12
XFILLER_0_14_29 VGND VGND VPWR VPWR sky130_fd_sc_hd__fill_1
Xhold3 cnt_por\[10\] VGND VGND VPWR VPWR net29 sky130_fd_sc_hd__dlygate4sd3_1
X_100_ _033_ net20 VGND VGND VPWR VPWR _016_ sky130_fd_sc_hd__nand2_1
XFILLER_0_8_27 VGND VGND VPWR VPWR sky130_fd_sc_hd__fill_1
Xhold4 cnt_por\[9\] VGND VGND VPWR VPWR net30 sky130_fd_sc_hd__dlygate4sd3_1
XFILLER_0_15_73 VPWR VGND VPWR VGND sky130_ef_sc_hd__decap_12
XPHY_EDGE_ROW_2_Left_19 VGND VGND VPWR VPWR sky130_fd_sc_hd__decap_3
XFILLER_0_2_29 VGND VGND VPWR VPWR sky130_fd_sc_hd__decap_8
XPHY_EDGE_ROW_5_Left_22 VGND VGND VPWR VPWR sky130_fd_sc_hd__decap_3
XFILLER_0_3_61 VPWR VGND VPWR VGND sky130_ef_sc_hd__decap_12
Xhold5 cnt_st\[0\] VGND VGND VPWR VPWR net31 sky130_fd_sc_hd__dlygate4sd3_1
XFILLER_0_15_85 VPWR VGND VPWR VGND sky130_ef_sc_hd__decap_12
XFILLER_0_12_97 VGND VGND VPWR VPWR sky130_fd_sc_hd__fill_1
XTAP_TAPCELL_ROW_7_46 VGND VPWR sky130_fd_sc_hd__tapvpwrvgnd_1
XFILLER_0_2_19 VGND VGND VPWR VPWR sky130_fd_sc_hd__decap_8
XFILLER_0_3_73 VPWR VGND VPWR VGND sky130_ef_sc_hd__decap_12
X_089_ net4 net23 VGND VGND VPWR VPWR _046_ sky130_fd_sc_hd__nand2b_1
Xhold6 cnt_por\[8\] VGND VGND VPWR VPWR net32 sky130_fd_sc_hd__dlygate4sd3_1
XFILLER_0_15_97 VGND VGND VPWR VPWR sky130_fd_sc_hd__fill_1
XTAP_TAPCELL_ROW_14_56 VGND VPWR sky130_fd_sc_hd__tapvpwrvgnd_1
XFILLER_0_9_83 VGND VGND VPWR VPWR sky130_fd_sc_hd__fill_2
XFILLER_0_9_61 VGND VGND VPWR VPWR sky130_fd_sc_hd__fill_2
XTAP_TAPCELL_ROW_1_37 VGND VPWR sky130_fd_sc_hd__tapvpwrvgnd_1
XFILLER_0_0_63 VGND VGND VPWR VPWR sky130_fd_sc_hd__decap_3
XFILLER_0_0_85 VPWR VGND VPWR VGND sky130_ef_sc_hd__decap_12
XPHY_EDGE_ROW_3_Right_3 VGND VGND VPWR VPWR sky130_fd_sc_hd__decap_3
X_088_ net34 _042_ _045_ VGND VGND VPWR VPWR _004_ sky130_fd_sc_hd__a21bo_1
XFILLER_0_3_52 VGND VGND VPWR VPWR sky130_fd_sc_hd__decap_4
XFILLER_0_3_85 VPWR VGND VPWR VGND sky130_ef_sc_hd__decap_12
Xhold7 cnt_st\[2\] VGND VGND VPWR VPWR net33 sky130_fd_sc_hd__dlygate4sd3_1
XFILLER_0_0_20 VGND VGND VPWR VPWR sky130_fd_sc_hd__fill_2
XFILLER_0_0_97 VGND VGND VPWR VPWR sky130_fd_sc_hd__fill_1
XFILLER_0_15_54 VGND VGND VPWR VPWR sky130_fd_sc_hd__fill_2
XPHY_EDGE_ROW_13_Right_13 VGND VGND VPWR VPWR sky130_fd_sc_hd__decap_3
XTAP_TAPCELL_ROW_14_57 VGND VPWR sky130_fd_sc_hd__tapvpwrvgnd_1
XFILLER_0_12_33 VGND VGND VPWR VPWR sky130_fd_sc_hd__fill_1
XPHY_EDGE_ROW_9_Left_26 VGND VGND VPWR VPWR sky130_fd_sc_hd__decap_3
Xhold8 cnt_st\[4\] VGND VGND VPWR VPWR net34 sky130_fd_sc_hd__dlygate4sd3_1
X_087_ cnt_st\[4\] _042_ _032_ VGND VGND VPWR VPWR _045_ sky130_fd_sc_hd__o21a_1
XFILLER_0_3_97 VGND VGND VPWR VPWR sky130_fd_sc_hd__fill_1
XFILLER_0_15_3 VPWR VGND VPWR VGND sky130_ef_sc_hd__decap_12
XFILLER_0_9_96 VGND VGND VPWR VPWR sky130_fd_sc_hd__fill_2
Xclkbuf_1_0__f_osc_ck clknet_0_osc_ck VGND VGND VPWR VPWR clknet_1_0__leaf_osc_ck
+ sky130_fd_sc_hd__clkbuf_16
XFILLER_0_6_97 VGND VGND VPWR VPWR sky130_fd_sc_hd__fill_1
XFILLER_0_4_3 VGND VGND VPWR VPWR sky130_fd_sc_hd__fill_2
X_086_ net34 _032_ _044_ VGND VGND VPWR VPWR _003_ sky130_fd_sc_hd__o21a_1
XFILLER_0_3_10 VPWR VGND VPWR VGND sky130_ef_sc_hd__decap_12
X_138_ clknet_1_0__leaf_osc_ck net28 net8 VGND VGND VPWR VPWR cnt_rsb sky130_fd_sc_hd__dfrtp_1
XFILLER_0_0_33 VGND VGND VPWR VPWR sky130_fd_sc_hd__fill_1
X_069_ net7 net6 net5 VGND VGND VPWR VPWR net14 sky130_fd_sc_hd__and3b_1
XFILLER_0_0_77 VGND VGND VPWR VPWR sky130_fd_sc_hd__decap_3
XFILLER_0_15_45 VGND VGND VPWR VPWR sky130_fd_sc_hd__decap_4
XPHY_EDGE_ROW_7_Right_7 VGND VGND VPWR VPWR sky130_fd_sc_hd__decap_3
XFILLER_0_12_68 VPWR VGND VPWR VGND sky130_ef_sc_hd__decap_12
X_085_ _042_ _043_ _030_ VGND VGND VPWR VPWR _044_ sky130_fd_sc_hd__a21o_1
XFILLER_0_3_22 VGND VGND VPWR VPWR sky130_fd_sc_hd__decap_8
X_137_ clknet_1_0__leaf_osc_ck net26 net8 VGND VGND VPWR VPWR cnt_rsb_stg1 sky130_fd_sc_hd__dfrtp_1
X_068_ net7 net5 net6 VGND VGND VPWR VPWR net13 sky130_fd_sc_hd__nor3b_1
XFILLER_0_13_90 VGND VGND VPWR VPWR sky130_fd_sc_hd__decap_8
XFILLER_0_9_55 VGND VGND VPWR VPWR sky130_fd_sc_hd__fill_1
X_136_ clknet_1_0__leaf_osc_ck _015_ net25 VGND VGND VPWR VPWR cnt_por\[10\] sky130_fd_sc_hd__dfrtp_1
X_084_ cnt_st\[3\] net4 VGND VGND VPWR VPWR _043_ sky130_fd_sc_hd__or2_1
X_067_ net7 net6 net5 VGND VGND VPWR VPWR net12 sky130_fd_sc_hd__nor3b_1
XFILLER_0_0_57 VGND VGND VPWR VPWR sky130_fd_sc_hd__fill_2
X_119_ net30 _027_ VGND VGND VPWR VPWR _014_ sky130_fd_sc_hd__xor2_1
XFILLER_0_13_3 VPWR VGND VPWR VGND sky130_ef_sc_hd__decap_12
XFILLER_0_12_15 VPWR VGND VPWR VGND sky130_ef_sc_hd__decap_12
XFILLER_0_6_23 VGND VGND VPWR VPWR sky130_fd_sc_hd__fill_1
X_083_ cnt_st\[3\] net4 VGND VGND VPWR VPWR _042_ sky130_fd_sc_hd__nand2_1
XFILLER_0_15_15 VGND VGND VPWR VPWR sky130_fd_sc_hd__decap_3
X_118_ net4 _036_ net23 cnt_por\[8\] cnt_por\[9\] VGND VGND VPWR VPWR _028_ sky130_fd_sc_hd__o2111a_1
X_066_ net7 net6 net5 VGND VGND VPWR VPWR net11 sky130_fd_sc_hd__nor3_1
X_135_ clknet_1_0__leaf_osc_ck _014_ net25 VGND VGND VPWR VPWR cnt_por\[9\] sky130_fd_sc_hd__dfrtp_1
XPHY_EDGE_ROW_16_Left_33 VGND VGND VPWR VPWR sky130_fd_sc_hd__decap_3
XFILLER_0_12_27 VGND VGND VPWR VPWR sky130_fd_sc_hd__fill_1
XPHY_EDGE_ROW_1_Left_18 VGND VGND VPWR VPWR sky130_fd_sc_hd__decap_3
X_082_ _030_ _041_ _039_ VGND VGND VPWR VPWR _002_ sky130_fd_sc_hd__o21ai_1
X_065_ _034_ _035_ _037_ VGND VGND VPWR VPWR net19 sky130_fd_sc_hd__nor3_1
X_134_ clknet_1_0__leaf_osc_ck _013_ net24 VGND VGND VPWR VPWR cnt_por\[8\] sky130_fd_sc_hd__dfrtp_1
XFILLER_0_0_48 VGND VGND VPWR VPWR sky130_fd_sc_hd__decap_3
XPHY_EDGE_ROW_4_Left_21 VGND VGND VPWR VPWR sky130_fd_sc_hd__decap_3
XFILLER_0_9_13 VGND VGND VPWR VPWR sky130_fd_sc_hd__fill_2
X_117_ net32 _026_ VGND VGND VPWR VPWR _013_ sky130_fd_sc_hd__xnor2_1
XFILLER_0_16_81 VGND VGND VPWR VPWR sky130_fd_sc_hd__decap_3
XFILLER_0_12_39 VGND VGND VPWR VPWR sky130_fd_sc_hd__decap_4
XPHY_EDGE_ROW_16_Right_16 VGND VGND VPWR VPWR sky130_fd_sc_hd__decap_3
X_081_ cnt_st\[1\] cnt_st\[0\] net33 VGND VGND VPWR VPWR _041_ sky130_fd_sc_hd__a21oi_1
XFILLER_0_10_83 VGND VGND VPWR VPWR sky130_fd_sc_hd__fill_1
X_133_ clknet_1_0__leaf_osc_ck _012_ net24 VGND VGND VPWR VPWR cnt_por\[7\] sky130_fd_sc_hd__dfrtp_1
X_064_ cnt_por\[9\] cnt_por\[8\] cnt_por\[10\] VGND VGND VPWR VPWR _037_ sky130_fd_sc_hd__nand3_1
X_116_ net4 _036_ net22 cnt_por\[8\] VGND VGND VPWR VPWR _027_ sky130_fd_sc_hd__o211a_1
XTAP_TAPCELL_ROW_5_43 VGND VPWR sky130_fd_sc_hd__tapvpwrvgnd_1
XPHY_EDGE_ROW_2_Right_2 VGND VGND VPWR VPWR sky130_fd_sc_hd__decap_3
XFILLER_0_12_29 VGND VGND VPWR VPWR sky130_fd_sc_hd__decap_4
XTAP_TAPCELL_ROW_12_53 VGND VPWR sky130_fd_sc_hd__tapvpwrvgnd_1
X_132_ clknet_1_1__leaf_osc_ck _011_ net24 VGND VGND VPWR VPWR cnt_por\[6\] sky130_fd_sc_hd__dfrtp_1
X_080_ _029_ _040_ net21 net4 VGND VGND VPWR VPWR _001_ sky130_fd_sc_hd__a211o_1
X_063_ _034_ _035_ VGND VGND VPWR VPWR _036_ sky130_fd_sc_hd__nor2_1
XFILLER_0_0_3 VGND VGND VPWR VPWR sky130_fd_sc_hd__decap_6
X_115_ net4 _036_ net22 VGND VGND VPWR VPWR _026_ sky130_fd_sc_hd__o21ai_1
XFILLER_0_16_61 VPWR VGND VPWR VGND sky130_ef_sc_hd__decap_12
.ends

